
-------------------------------------------------------------------------
|    ___ _   _ ___                                                      |
|   / __| | | |_  )   Release 7.1.1 "Blackbird"                         |
|   \__ \ |_| |/ /                                                      |
|   |___/\___//___|   Suite (Computational Fluid Dynamics Code)         |
|                                                                       |
-------------------------------------------------------------------------
| SU2 Project Website: https://su2code.github.io                        |
|                                                                       |
| The SU2 Project is maintained by the SU2 Foundation                   |
| (http://su2foundation.org)                                            |
-------------------------------------------------------------------------
| Copyright 2012-2020, SU2 Contributors                                 |
|                                                                       |
| SU2 is free software; you can redistribute it and/or                  |
| modify it under the terms of the GNU Lesser General Public            |
| License as published by the Free Software Foundation; either          |
| version 2.1 of the License, or (at your option) any later version.    |
|                                                                       |
| SU2 is distributed in the hope that it will be useful,                |
| but WITHOUT ANY WARRANTY; without even the implied warranty of        |
| MERCHANTABILITY or FITNESS FOR A PARTICULAR PURPOSE. See the GNU      |
| Lesser General Public License for more details.                       |
|                                                                       |
| You should have received a copy of the GNU Lesser General Public      |
| License along with SU2. If not, see <http://www.gnu.org/licenses/>.   |
-------------------------------------------------------------------------

Parsing config file for zone 0

----------------- Physical Case Definition ( Zone 0 ) -------------------
Compressible RANS equations.
Turbulence model: Spalart Allmaras
Hybrid RANS/LES: No Hybrid RANS/LES
Mach number: 0.729.
Angle of attack (AoA): 2.31 deg, and angle of sideslip (AoS): 0 deg.
Reynolds number: 6.5e+006. Reference length 1.
Fixed CL mode, target value: 0.724.
Reading and writing binary SU2 native restart files.
Read flow solution from: solution_flow.dat.
Dimensional simulation.
The reference area is 1 m^2.
The semi-span will be computed using the max y(3D) value.
The reference length is 1 m.
Reference origin for moment evaluation is (0.25, 0, 0).
Surface(s) where the force coefficients are evaluated: AIRFOIL.

Surface(s) plotted in the output file: AIRFOIL.
Surface(s) affected by the design variables: AIRFOIL.
Input mesh file name: mesh_RAE2822_turb.su2

--------------- Space Numerical Integration ( Zone 0 ) ------------------
Jameson-Schmidt-Turkel scheme (2nd order in space) for the flow inviscid terms.
JST viscous coefficients (2nd & 4th): 0.5, 0.02.
The method includes a grid stretching correction (p = 0.3).
Scalar upwind solver for the turbulence model.
First order integration in space.
Average of gradients with correction (viscous flow terms).
Average of gradients with correction (viscous turbulence terms).
Gradient for upwind reconstruction: inverse-distance weighted Least-Squares.
Gradient for viscous and source terms: inverse-distance weighted Least-Squares.

--------------- Time Numerical Integration  ( Zone 0 ) ------------------
Local time stepping (steady state simulation).
Euler implicit method for the flow equations.
FGMRES is used for solving the linear system.
Using a ILU(0) preconditioning.
Convergence criteria of the linear solver: 1e-006.
Max number of linear iterations: 10.
No CFL adaptation.
Courant-Friedrichs-Lewy number:       10
Euler implicit time integration for the turbulence model.

------------------ Convergence Criteria  ( Zone 0 ) ---------------------
Maximum number of solver subiterations: 5500.
Begin convergence monitoring at iteration 10.
Residual minimum value: 1e-12.
Cauchy series min. value: 1e-006.
Number of Cauchy elements: 100.
Begin windowed time average at iteration 0.

-------------------- Output Information ( Zone 0 ) ----------------------
Writing solution files every 10000 iterations.
Writing the convergence history file every 1 inner iterations.
Writing the screen convergence history every 1 inner iterations.
The tabular file format is CSV (.csv).
Convergence history file name: history_direct.
Forces breakdown file name: forces_breakdown.dat.
Surface file name: surface_flow.
Volume file name: flow.
Restart file name: restart_flow.dat.

------------- Config File Boundary Information ( Zone 0 ) ---------------
+-----------------------------------------------------------------------+
|                        Marker Type|                        Marker Name|
+-----------------------------------------------------------------------+
|                          Far-field|                           FARFIELD|
+-----------------------------------------------------------------------+
|                     Heat flux wall|                            AIRFOIL|
+-----------------------------------------------------------------------+

-------------------- Output Preprocessing ( Zone 0 ) --------------------
  Fixed CL: Adding LIFT as Convergence Field to ensure convergence to target CL
Screen output fields: INNER_ITER, RMS_DENSITY, RMS_NU_TILDE, LIFT, DRAG
History output group(s): ITER, RMS_RES, AERO_COEFF
Convergence field(s): RMS_DENSITY, LIFT
Warning: No (valid) fields chosen for time convergence monitoring. Time convergence monitoring inactive.
Volume output fields: COORDINATES, SOLUTION, PRIMITIVE

------------------- Geometry Preprocessing ( Zone 0 ) -------------------
Two dimensional problem.
13937 grid points before partitioning.
22842 volume elements before partitioning.
2 surface markers.
192 boundary elements in index 0 (Marker = AIRFOIL).
40 boundary elements in index 1 (Marker = FARFIELD).
Executing the partitioning functions.
Building the graph adjacency structure.
Calling ParMETIS... graph partitioning complete (563 edge cuts).
Distributing ParMETIS coloring.
Rebalancing vertices.
Rebalancing volume element connectivity.
Rebalancing markers and surface elements.
14568 vertices including ghost points. 
23405 interior elements including halo cells. 
18541 triangles.
4864 quadrilaterals.
Establishing MPI communication patterns.
Setting point connectivity.
Renumbering points (Reverse Cuthill McKee Ordering).
Recomputing point connectivity.
Setting element connectivity.
Checking the numerical grid orientation.
All volume elements are correctly orientend.
All surface elements are correctly orientend.
Identifying edges and vertices.
Setting the control volume structure.
Area of the computational grid: 31333.8.
Searching for the closest normal neighbors to the surfaces.
Storing a mapping from global to local point index.
Compute the surface curvature.
Max K: 158.363. Mean K: 7.11927. Standard deviation K: 21.0143.
Checking for periodicity.
Computing mesh quality statistics for the dual control volumes.
+--------------------------------------------------------------+
|           Mesh Quality Metric|        Minimum|        Maximum|
+--------------------------------------------------------------+
|    Orthogonality Angle (deg.)|         75.288|        89.9981|
|     CV Face Area Aspect Ratio|        1.00147|         3358.4|
|           CV Sub-Volume Ratio|        1.00061|        1211.69|
+--------------------------------------------------------------+
Finding max control volume width.
Communicating number of neighbors.
Wetted area = 2.02426 m.
Area projection in the x-plane = 0.123154 m, y-plane = 0.995873 m.
Max. coordinate in the x-direction = 1 m, y-direction = 0.0643507 m.
Min. coordinate in the x-direction = 0 m, y-direction = -0.0577875 m.
Computing wall distances.

-------------------- Solver Preprocessing ( Zone 0 ) --------------------
 Warning: There is no restart file (flow.meta).
 Computation will continue without updating metadata parameters.
Viscous flow: Computing pressure using the ideal gas law
based on the free-stream temperature and a density computed
from the Reynolds number.
Force coefficients computed using free-stream values.

-- Models:
+------------------------------------------------------------------------------+
|          Viscosity Model|        Conductivity Model|              Fluid Model|
+------------------------------------------------------------------------------+
|               SUTHERLAND|          CONSTANT_PRANDTL|             STANDARD_AIR|
+------------------------------------------------------------------------------+
-- Fluid properties:
+------------------------------------------------------------------------------+
|                  Name|    Dim. value|    Ref. value|      Unit|Non-dim. value|
+------------------------------------------------------------------------------+
|        Ref. Viscosity|    1.716e-005|             1|   N.s/m^2|    1.716e-005|
|      Sutherland Temp.|        273.15|             1|         K|        273.15|
|     Sutherland Const.|         110.4|             1|         K|         110.4|
+------------------------------------------------------------------------------+
|        Prandtl (Lam.)|             -|             -|         -|          0.72|
|       Prandtl (Turb.)|             -|             -|         -|           0.9|
+------------------------------------------------------------------------------+
|          Gas Constant|       287.058|             1|  N.m/kg.K|       287.058|
|      Spec. Heat Ratio|             -|             -|         -|           1.4|
+------------------------------------------------------------------------------+
-- Initial and free-stream conditions:
+------------------------------------------------------------------------------+
|                  Name|    Dim. value|    Ref. value|      Unit|Non-dim. value|
+------------------------------------------------------------------------------+
|       Static Pressure|       38779.2|             1|        Pa|       38779.2|
|               Density|      0.468824|             1|    kg/m^3|      0.468824|
|           Temperature|        288.15|             1|         K|        288.15|
|          Total Energy|        237560|             1|   m^2/s^2|        237560|
|            Velocity-X|       247.875|             1|       m/s|       247.875|
|            Velocity-Y|       9.99902|             1|       m/s|       9.99902|
|    Velocity Magnitude|       248.077|             1|       m/s|       248.077|
+------------------------------------------------------------------------------+
|             Viscosity|   1.7893e-005|             1|   N.s/m^2|   1.7893e-005|
|          Conductivity|             -|             1|   W/m^2.K|             -|
|     Turb. Kin. Energy|       230.782|             1|   m^2/s^2|       230.782|
|     Spec. Dissipation|        604687|             1|       1/s|        604687|
+------------------------------------------------------------------------------+
|           Mach Number|             -|             -|         -|         0.729|
|       Reynolds Number|             -|             -|         -|      6.5e+006|
+------------------------------------------------------------------------------+
Initialize Jacobian structure (Navier-Stokes). MG level: 0.
Initialize Jacobian structure (SA model).

------------------- Numerics Preprocessing ( Zone 0 ) -------------------

----------------- Integration Preprocessing ( Zone 0 ) ------------------

------------------- Iteration Preprocessing ( Zone 0 ) ------------------
Euler/Navier-Stokes/RANS fluid iteration.

------------------------------ Begin Solver -----------------------------

Simulation Run using the Single-zone Driver
WARNING: SU2 was not compiled for an AVX-capable architecture.
+----------------------------------------------------------------+
|  Inner_Iter|    rms[Rho]|     rms[nu]|          CL|          CD|
+----------------------------------------------------------------+
|           0|   -3.078420|   -6.203998|    0.724000|    0.013444|
|           1|   -3.462640|   -6.325414|    0.724000|    0.013444|
|           2|   -3.706927|   -6.425748|    0.724000|    0.013444|
|           3|   -3.786253|   -6.508059|    0.724000|    0.013444|
|           4|   -3.840783|   -6.575078|    0.724000|    0.013444|
|           5|   -3.911722|   -6.629408|    0.724000|    0.013444|
|           6|   -3.999466|   -6.673387|    0.724000|    0.013444|
|           7|   -4.091139|   -6.708980|    0.724000|    0.013444|
|           8|   -4.169896|   -6.737745|    0.724000|    0.013444|
|           9|   -4.226993|   -6.760874|    0.724000|    0.013444|
|          10|   -4.264032|   -6.779285|    0.724000|    0.013444|
|          11|   -4.285147|   -6.793734|    0.724000|    0.013444|
|          12|   -4.294587|   -6.804860|    0.724000|    0.013444|
|          13|   -4.298478|   -6.813207|    0.724000|    0.013444|
|          14|   -4.303465|   -6.819222|    0.724000|    0.013444|
|          15|   -4.313859|   -6.823288|    0.724000|    0.013444|
|          16|   -4.330537|   -6.825742|    0.724000|    0.013444|
|          17|   -4.351567|   -6.826898|    0.724000|    0.013444|
|          18|   -4.373727|   -6.827037|    0.724000|    0.013444|
|          19|   -4.394359|   -6.826408|    0.724000|    0.013444|
|          20|   -4.412650|   -6.825219|    0.724000|    0.013444|
|          21|   -4.429501|   -6.823640|    0.724000|    0.013444|
|          22|   -4.446336|   -6.821810|    0.724000|    0.013444|
|          23|   -4.464002|   -6.819842|    0.724000|    0.013444|
|          24|   -4.482426|   -6.817829|    0.724000|    0.013444|
|          25|   -4.500877|   -6.815849|    0.724000|    0.013444|
|          26|   -4.518393|   -6.813961|    0.724000|    0.013444|
|          27|   -4.534111|   -6.812211|    0.724000|    0.013444|
|          28|   -4.547433|   -6.810629|    0.724000|    0.013444|
|          29|   -4.558139|   -6.809235|    0.724000|    0.013444|
|          30|   -4.566470|   -6.808040|    0.723999|    0.013444|
|          31|   -4.573135|   -6.807046|    0.723999|    0.013444|
|          32|   -4.579160|   -6.806248|    0.723999|    0.013444|
|          33|   -4.585637|   -6.805638|    0.723998|    0.013444|
|          34|   -4.593472|   -6.805202|    0.723997|    0.013444|
|          35|   -4.603234|   -6.804924|    0.723996|    0.013444|
|          36|   -4.615076|   -6.804789|    0.723995|    0.013444|
|          37|   -4.628734|   -6.804782|    0.723994|    0.013444|
|          38|   -4.643556|   -6.804887|    0.723993|    0.013444|
|          39|   -4.658589|   -6.805093|    0.723991|    0.013444|
|          40|   -4.672762|   -6.805390|    0.723989|    0.013444|
|          41|   -4.685160|   -6.805766|    0.723987|    0.013444|
|          42|   -4.695308|   -6.806214|    0.723985|    0.013444|
|          43|   -4.703336|   -6.806729|    0.723982|    0.013444|
|          44|   -4.709924|   -6.807302|    0.723979|    0.013443|
|          45|   -4.716062|   -6.807930|    0.723976|    0.013443|
|          46|   -4.722750|   -6.808605|    0.723972|    0.013443|
|          47|   -4.730762|   -6.809323|    0.723968|    0.013443|
|          48|   -4.740525|   -6.810077|    0.723963|    0.013443|
|          49|   -4.752100|   -6.810864|    0.723959|    0.013443|
|          50|   -4.765226|   -6.811677|    0.723953|    0.013442|
|          51|   -4.779413|   -6.812511|    0.723947|    0.013442|
|          52|   -4.794065|   -6.813360|    0.723941|    0.013442|
|          53|   -4.808604|   -6.814222|    0.723934|    0.013442|
|          54|   -4.822593|   -6.815094|    0.723927|    0.013441|
|          55|   -4.835815|   -6.815971|    0.723920|    0.013441|
|          56|   -4.848284|   -6.816854|    0.723912|    0.013441|
|          57|   -4.860206|   -6.817748|    0.723903|    0.013440|
|          58|   -4.871899|   -6.818652|    0.723894|    0.013440|
|          59|   -4.883695|   -6.819568|    0.723885|    0.013439|
|          60|   -4.895881|   -6.820504|    0.723875|    0.013439|
|          61|   -4.908654|   -6.821467|    0.723865|    0.013439|
|          62|   -4.922118|   -6.822469|    0.723854|    0.013438|
|          63|   -4.936296|   -6.823519|    0.723844|    0.013438|
|          64|   -4.951155|   -6.824631|    0.723833|    0.013437|
|          65|   -4.966637|   -6.825818|    0.723822|    0.013437|
|          66|   -4.982678|   -6.827095|    0.723811|    0.013436|
|          67|   -4.999225|   -6.828477|    0.723800|    0.013436|
|          68|   -5.016233|   -6.829982|    0.723789|    0.013436|
|          69|   -5.033668|   -6.831627|    0.723778|    0.013435|
|          70|   -5.051493|   -6.833431|    0.723768|    0.013435|
|          71|   -5.069655|   -6.835412|    0.723757|    0.013434|
|          72|   -5.088079|   -6.837590|    0.723747|    0.013434|
|          73|   -5.106661|   -6.839984|    0.723738|    0.013434|
|          74|   -5.125268|   -6.842614|    0.723729|    0.013434|
|          75|   -5.143737|   -6.845498|    0.723720|    0.013433|
|          76|   -5.161887|   -6.848657|    0.723713|    0.013433|
|          77|   -5.179523|   -6.852109|    0.723705|    0.013433|
|          78|   -5.196448|   -6.855875|    0.723699|    0.013433|
|          79|   -5.212471|   -6.859974|    0.723693|    0.013432|
|          80|   -5.227419|   -6.864424|    0.723688|    0.013432|
|          81|   -5.241146|   -6.869246|    0.723684|    0.013432|
|          82|   -5.253542|   -6.874457|    0.723681|    0.013432|
|          83|   -5.264537|   -6.880079|    0.723678|    0.013432|
|          84|   -5.274112|   -6.886129|    0.723676|    0.013432|
|          85|   -5.282295|   -6.892631|    0.723675|    0.013432|
|          86|   -5.289162|   -6.899604|    0.723675|    0.013432|
|          87|   -5.294828|   -6.907075|    0.723675|    0.013432|
|          88|   -5.299442|   -6.915071|    0.723676|    0.013433|
|          89|   -5.303172|   -6.923614|    0.723678|    0.013433|
|          90|   -5.306192|   -6.932728|    0.723680|    0.013433|
|          91|   -5.308678|   -6.942439|    0.723683|    0.013433|
|          92|   -5.310791|   -6.952783|    0.723686|    0.013433|
|          93|   -5.312676|   -6.963794|    0.723690|    0.013433|
|          94|   -5.314456|   -6.975477|    0.723695|    0.013434|
|          95|   -5.316230|   -6.987859|    0.723700|    0.013434|
|          96|   -5.318075|   -7.000959|    0.723705|    0.013434|
|          97|   -5.320047|   -7.014800|    0.723710|    0.013435|
|          98|   -5.322182|   -7.029396|    0.723716|    0.013435|
|          99|   -5.324498|   -7.044758|    0.723722|    0.013435|
|         100|   -5.327001|   -7.060891|    0.723728|    0.013435|
|         101|   -5.329686|   -7.077793|    0.723733|    0.013453|
+-----------------------------------------------------------------------+
|Fixed CL Mode                           |Value                         |
+-----------------------------------------------------------------------+
|Current CL                              |0.723733                      |
|Target CL                               |0.724                         |
|Previous AOA                            |2.31                          |
|Changed AoA by                          |0.00136208                    |
+-----------------------------------------------------------------------+
+----------------------------------------------------------------+
|  Inner_Iter|    rms[Rho]|     rms[nu]|          CL|          CD|
+----------------------------------------------------------------+
|         102|   -3.059550|   -6.978893|    0.723740|    0.013453|
|         103|   -3.444507|   -7.044727|    0.723746|    0.013454|
|         104|   -3.690956|   -7.078229|    0.723752|    0.013454|
|         105|   -3.771359|   -7.105318|    0.723758|    0.013454|
|         106|   -3.826144|   -7.130727|    0.723764|    0.013455|
|         107|   -3.897291|   -7.155319|    0.723770|    0.013455|
|         108|   -3.985261|   -7.179405|    0.723776|    0.013455|
|         109|   -4.076811|   -7.202851|    0.723781|    0.013455|
|         110|   -4.154518|   -7.225349|    0.723787|    0.013456|
|         111|   -4.209501|   -7.246425|    0.723792|    0.013456|
|         112|   -4.243897|   -7.265589|    0.723796|    0.013456|
|         113|   -4.262557|   -7.282658|    0.723801|    0.013457|
|         114|   -4.270224|   -7.297758|    0.723805|    0.013457|
|         115|   -4.273097|   -7.311076|    0.723809|    0.013457|
|         116|   -4.277568|   -7.322668|    0.723812|    0.013457|
|         117|   -4.287642|   -7.332486|    0.723815|    0.013458|
|         118|   -4.303988|   -7.340573|    0.723818|    0.013458|
|         119|   -4.324564|   -7.347146|    0.723820|    0.013458|
|         120|   -4.346110|   -7.352560|    0.723822|    0.013458|
|         121|   -4.365960|   -7.357187|    0.723823|    0.013458|
|         122|   -4.383306|   -7.361316|    0.723824|    0.013459|
|         123|   -4.399057|   -7.365132|    0.723825|    0.013459|
|         124|   -4.414663|   -7.368736|    0.723825|    0.013459|
|         125|   -4.431046|   -7.372189|    0.723825|    0.013459|
|         126|   -4.448260|   -7.375593|    0.723824|    0.013459|
|         127|   -4.465734|   -7.379037|    0.723823|    0.013459|
|         128|   -4.482658|   -7.382623|    0.723822|    0.013459|
|         129|   -4.498264|   -7.386495|    0.723820|    0.013459|
|         130|   -4.511968|   -7.390637|    0.723819|    0.013460|
|         131|   -4.523471|   -7.395084|    0.723817|    0.013460|
|         132|   -4.532876|   -7.400005|    0.723814|    0.013460|
|         133|   -4.540727|   -7.405507|    0.723812|    0.013460|
|         134|   -4.547915|   -7.411590|    0.723809|    0.013460|
|         135|   -4.555454|   -7.418268|    0.723807|    0.013460|
|         136|   -4.564240|   -7.425554|    0.723804|    0.013460|
|         137|   -4.574879|   -7.433333|    0.723802|    0.013460|
|         138|   -4.587600|   -7.441390|    0.723799|    0.013460|
|         139|   -4.602231|   -7.449506|    0.723797|    0.013460|
|         140|   -4.618209|   -7.457453|    0.723795|    0.013461|
|         141|   -4.634655|   -7.464903|    0.723793|    0.013461|
|         142|   -4.650529|   -7.471600|    0.723791|    0.013461|
|         143|   -4.664885|   -7.477379|    0.723790|    0.013461|
|         144|   -4.677163|   -7.482063|    0.723789|    0.013461|
|         145|   -4.687378|   -7.485513|    0.723789|    0.013462|
|         146|   -4.696109|   -7.487623|    0.723789|    0.013462|
|         147|   -4.704290|   -7.488335|    0.723789|    0.013462|
|         148|   -4.712919|   -7.487681|    0.723790|    0.013463|
|         149|   -4.722802|   -7.485741|    0.723791|    0.013463|
|         150|   -4.734413|   -7.482623|    0.723793|    0.013463|
|         151|   -4.747848|   -7.478540|    0.723796|    0.013464|
|         152|   -4.762861|   -7.473730|    0.723799|    0.013464|
|         153|   -4.778949|   -7.468448|    0.723803|    0.013465|
|         154|   -4.795467|   -7.463007|    0.723808|    0.013465|
|         155|   -4.811766|   -7.457702|    0.723813|    0.013466|
|         156|   -4.827332|   -7.452789|    0.723819|    0.013467|
|         157|   -4.841883|   -7.448489|    0.723825|    0.013467|
|         158|   -4.855400|   -7.444994|    0.723832|    0.013468|
|         159|   -4.868090|   -7.442480|    0.723840|    0.013469|
|         160|   -4.880295|   -7.441082|    0.723848|    0.013469|
|         161|   -4.892391|   -7.440929|    0.723857|    0.013470|
|         162|   -4.904705|   -7.442105|    0.723866|    0.013471|
|         163|   -4.917468|   -7.444653|    0.723876|    0.013471|
|         164|   -4.930803|   -7.448599|    0.723886|    0.013472|
|         165|   -4.944744|   -7.453918|    0.723896|    0.013473|
|         166|   -4.959258|   -7.460551|    0.723906|    0.013474|
|         167|   -4.974281|   -7.468389|    0.723917|    0.013474|
|         168|   -4.989744|   -7.477243|    0.723927|    0.013475|
|         169|   -5.005586|   -7.486854|    0.723938|    0.013476|
|         170|   -5.021759|   -7.496877|    0.723948|    0.013476|
|         171|   -5.038227|   -7.506856|    0.723958|    0.013477|
|         172|   -5.054949|   -7.516228|    0.723968|    0.013477|
|         173|   -5.071875|   -7.524351|    0.723977|    0.013478|
|         174|   -5.088930|   -7.530541|    0.723986|    0.013478|
|         175|   -5.106015|   -7.534149|    0.723995|    0.013479|
|         176|   -5.123006|   -7.534656|    0.724002|    0.013479|
|         177|   -5.139758|   -7.531758|    0.724010|    0.013480|
|         178|   -5.156112|   -7.525424|    0.724016|    0.013480|
|         179|   -5.171909|   -7.515914|    0.724022|    0.013480|
|         180|   -5.186994|   -7.503718|    0.724027|    0.013480|
|         181|   -5.201225|   -7.489475|    0.724031|    0.013480|
|         182|   -5.214485|   -7.473885|    0.724034|    0.013480|
|         183|   -5.226682|   -7.457624|    0.724037|    0.013480|
|         184|   -5.237753|   -7.441296|    0.724038|    0.013480|
|         185|   -5.247672|   -7.425404|    0.724039|    0.013480|
|         186|   -5.256447|   -7.410350|    0.724039|    0.013480|
|         187|   -5.264120|   -7.396439|    0.724039|    0.013480|
|         188|   -5.270769|   -7.383896|    0.724037|    0.013479|
|         189|   -5.276495|   -7.372876|    0.724035|    0.013479|
|         190|   -5.281423|   -7.363483|    0.724032|    0.013479|
|         191|   -5.285691|   -7.355781|    0.724029|    0.013478|
|         192|   -5.289439|   -7.349799|    0.724025|    0.013478|
|         193|   -5.292805|   -7.345541|    0.724020|    0.013477|
|         194|   -5.295918|   -7.342992|    0.724015|    0.013477|
|         195|   -5.298887|   -7.342116|    0.724010|    0.013476|
|         196|   -5.301806|   -7.342871|    0.724004|    0.013476|
|         197|   -5.304748|   -7.345176|    0.723998|    0.013475|
|         198|   -5.307765|   -7.348951|    0.723991|    0.013475|
|         199|   -5.310887|   -7.354096|    0.723985|    0.013474|
|         200|   -5.314129|   -7.360496|    0.723978|    0.013474|
|         201|   -5.317490|   -7.368013|    0.723971|    0.013475|
+-----------------------------------------------------------------------+
|Fixed CL Mode                           |Value                         |
+-----------------------------------------------------------------------+
|Current CL                              |0.723971                      |
|Target CL                               |0.724                         |
|Previous AOA                            |2.31136                       |
|Changed AoA by                          |0.000110299                   |
+-----------------------------------------------------------------------+
+----------------------------------------------------------------+
|  Inner_Iter|    rms[Rho]|     rms[nu]|          CL|          CD|
+----------------------------------------------------------------+
|         202|   -4.149663|   -7.372360|    0.723964|    0.013474|
|         203|   -4.522855|   -7.383461|    0.723957|    0.013473|
|         204|   -4.739939|   -7.393834|    0.723950|    0.013473|
|         205|   -4.805770|   -7.404272|    0.723943|    0.013472|
|         206|   -4.853195|   -7.414664|    0.723937|    0.013472|
|         207|   -4.913577|   -7.424768|    0.723930|    0.013471|
|         208|   -4.984488|   -7.434312|    0.723923|    0.013471|
|         209|   -5.054667|   -7.443025|    0.723917|    0.013470|
|         210|   -5.113611|   -7.450656|    0.723911|    0.013470|
|         211|   -5.158461|   -7.456990|    0.723905|    0.013470|
|         212|   -5.191561|   -7.461865|    0.723899|    0.013469|
|         213|   -5.214967|   -7.465192|    0.723894|    0.013469|
|         214|   -5.230029|   -7.466972|    0.723888|    0.013468|
|         215|   -5.239351|   -7.467250|    0.723884|    0.013468|
|         216|   -5.246662|   -7.466151|    0.723879|    0.013467|
|         217|   -5.255037|   -7.463846|    0.723875|    0.013467|
|         218|   -5.265758|   -7.460543|    0.723871|    0.013467|
|         219|   -5.278496|   -7.456464|    0.723868|    0.013466|
|         220|   -5.292249|   -7.451838|    0.723865|    0.013466|
|         221|   -5.306289|   -7.446881|    0.723862|    0.013466|
|         222|   -5.320567|   -7.441788|    0.723860|    0.013466|
|         223|   -5.335454|   -7.436728|    0.723858|    0.013465|
|         224|   -5.351202|   -7.431843|    0.723857|    0.013465|
|         225|   -5.367553|   -7.427251|    0.723856|    0.013465|
|         226|   -5.383742|   -7.423052|    0.723855|    0.013465|
|         227|   -5.398777|   -7.419316|    0.723855|    0.013464|
|         228|   -5.411816|   -7.416098|    0.723855|    0.013464|
|         229|   -5.422432|   -7.413437|    0.723856|    0.013464|
|         230|   -5.430689|   -7.411357|    0.723857|    0.013464|
|         231|   -5.437059|   -7.409868|    0.723858|    0.013464|
|         232|   -5.442253|   -7.408971|    0.723860|    0.013464|
|         233|   -5.447052|   -7.408652|    0.723862|    0.013463|
|         234|   -5.452139|   -7.408888|    0.723864|    0.013463|
|         235|   -5.457984|   -7.409646|    0.723867|    0.013463|
|         236|   -5.464777|   -7.410883|    0.723870|    0.013463|
|         237|   -5.472422|   -7.412549|    0.723872|    0.013463|
|         238|   -5.480574|   -7.414589|    0.723876|    0.013463|
|         239|   -5.488710|   -7.416933|    0.723879|    0.013463|
|         240|   -5.496222|   -7.419515|    0.723882|    0.013463|
|         241|   -5.502535|   -7.422264|    0.723886|    0.013462|
|         242|   -5.507217|   -7.425108|    0.723889|    0.013462|
|         243|   -5.510078|   -7.427976|    0.723893|    0.013462|
|         244|   -5.511202|   -7.430802|    0.723896|    0.013462|
|         245|   -5.510906|   -7.433523|    0.723900|    0.013462|
|         246|   -5.509648|   -7.436088|    0.723903|    0.013462|
|         247|   -5.507900|   -7.438455|    0.723907|    0.013461|
|         248|   -5.506059|   -7.440591|    0.723910|    0.013461|
|         249|   -5.504389|   -7.442479|    0.723913|    0.013461|
|         250|   -5.503014|   -7.444113|    0.723916|    0.013461|
|         251|   -5.501939|   -7.445496|    0.723919|    0.013461|
|         252|   -5.501102|   -7.446643|    0.723922|    0.013460|
|         253|   -5.500415|   -7.447574|    0.723924|    0.013460|
|         254|   -5.499808|   -7.448314|    0.723927|    0.013460|
|         255|   -5.499256|   -7.448885|    0.723929|    0.013460|
|         256|   -5.498782|   -7.449311|    0.723931|    0.013460|
|         257|   -5.498460|   -7.449609|    0.723933|    0.013459|
|         258|   -5.498389|   -7.449788|    0.723935|    0.013459|
|         259|   -5.498682|   -7.449850|    0.723937|    0.013459|
|         260|   -5.499443|   -7.449790|    0.723938|    0.013459|
|         261|   -5.500760|   -7.449594|    0.723940|    0.013458|
|         262|   -5.502695|   -7.449241|    0.723941|    0.013458|
|         263|   -5.505288|   -7.448709|    0.723942|    0.013458|
|         264|   -5.508559|   -7.447974|    0.723943|    0.013458|
|         265|   -5.512511|   -7.447014|    0.723944|    0.013457|
|         266|   -5.517139|   -7.445814|    0.723946|    0.013457|
|         267|   -5.522431|   -7.444366|    0.723947|    0.013457|
|         268|   -5.528372|   -7.442674|    0.723948|    0.013457|
|         269|   -5.534943|   -7.440756|    0.723949|    0.013457|
|         270|   -5.542117|   -7.438642|    0.723950|    0.013457|
|         271|   -5.549864|   -7.436375|    0.723951|    0.013456|
|         272|   -5.558143|   -7.434007|    0.723952|    0.013456|
|         273|   -5.566901|   -7.431603|    0.723953|    0.013456|
|         274|   -5.576073|   -7.429229|    0.723954|    0.013456|
|         275|   -5.585576|   -7.426955|    0.723956|    0.013456|
|         276|   -5.595318|   -7.424852|    0.723957|    0.013456|
|         277|   -5.605186|   -7.422981|    0.723958|    0.013456|
|         278|   -5.615059|   -7.421401|    0.723960|    0.013456|
|         279|   -5.624802|   -7.420158|    0.723961|    0.013456|
|         280|   -5.634271|   -7.419285|    0.723963|    0.013457|
|         281|   -5.643322|   -7.418802|    0.723964|    0.013457|
|         282|   -5.651810|   -7.418714|    0.723966|    0.013457|
|         283|   -5.659598|   -7.419011|    0.723967|    0.013457|
|         284|   -5.666566|   -7.419669|    0.723969|    0.013457|
|         285|   -5.672615|   -7.420648|    0.723970|    0.013457|
|         286|   -5.677675|   -7.421895|    0.723971|    0.013458|
|         287|   -5.681709|   -7.423347|    0.723973|    0.013458|
|         288|   -5.684714|   -7.424931|    0.723974|    0.013458|
|         289|   -5.686725|   -7.426571|    0.723975|    0.013458|
|         290|   -5.687807|   -7.428186|    0.723976|    0.013459|
|         291|   -5.688052|   -7.429698|    0.723977|    0.013459|
|         292|   -5.687574|   -7.431036|    0.723978|    0.013459|
|         293|   -5.686501|   -7.432137|    0.723979|    0.013460|
|         294|   -5.684966|   -7.432953|    0.723980|    0.013460|
|         295|   -5.683105|   -7.433452|    0.723980|    0.013460|
|         296|   -5.681044|   -7.433619|    0.723980|    0.013461|
|         297|   -5.678905|   -7.433456|    0.723981|    0.013461|
|         298|   -5.676795|   -7.432983|    0.723981|    0.013461|
|         299|   -5.674806|   -7.432232|    0.723981|    0.013461|
|         300|   -5.673017|   -7.431249|    0.723981|    0.013462|
|         301|   -5.671491|   -7.430088|    0.723980|    0.013463|
+-----------------------------------------------------------------------+
|Fixed CL Mode                           |Value                         |
+-----------------------------------------------------------------------+
|Current CL                              |0.72398                       |
|Target CL                               |0.724                         |
|Previous AOA                            |2.31147                       |
|Changed AoA by                          |9.72007e-005                  |
+-----------------------------------------------------------------------+
+----------------------------------------------------------------+
|  Inner_Iter|    rms[Rho]|     rms[nu]|          CL|          CD|
+----------------------------------------------------------------+
|         302|   -4.205696|   -7.424925|    0.723980|    0.013463|
|         303|   -4.585504|   -7.425480|    0.723979|    0.013464|
|         304|   -4.816309|   -7.424707|    0.723979|    0.013464|
|         305|   -4.887658|   -7.423730|    0.723978|    0.013464|
|         306|   -4.938560|   -7.422760|    0.723977|    0.013464|
|         307|   -5.005489|   -7.421873|    0.723976|    0.013464|
|         308|   -5.087641|   -7.421113|    0.723975|    0.013464|
|         309|   -5.173218|   -7.420510|    0.723974|    0.013465|
|         310|   -5.248291|   -7.420083|    0.723973|    0.013465|
|         311|   -5.306023|   -7.419836|    0.723972|    0.013465|
|         312|   -5.347042|   -7.419768|    0.723971|    0.013465|
|         313|   -5.373345|   -7.419873|    0.723970|    0.013465|
|         314|   -5.387270|   -7.420142|    0.723968|    0.013465|
|         315|   -5.393625|   -7.420563|    0.723967|    0.013465|
|         316|   -5.398542|   -7.421117|    0.723966|    0.013465|
|         317|   -5.406430|   -7.421789|    0.723965|    0.013465|
|         318|   -5.418583|   -7.422561|    0.723964|    0.013465|
|         319|   -5.433739|   -7.423420|    0.723963|    0.013465|
|         320|   -5.449581|   -7.424356|    0.723962|    0.013465|
|         321|   -5.464318|   -7.425358|    0.723961|    0.013465|
|         322|   -5.477536|   -7.426418|    0.723960|    0.013465|
|         323|   -5.489896|   -7.427531|    0.723960|    0.013464|
|         324|   -5.502214|   -7.428692|    0.723959|    0.013464|
|         325|   -5.514755|   -7.429898|    0.723958|    0.013464|
|         326|   -5.527135|   -7.431148|    0.723957|    0.013464|
|         327|   -5.538635|   -7.432446|    0.723957|    0.013464|
|         328|   -5.548599|   -7.433795|    0.723956|    0.013464|
|         329|   -5.556656|   -7.435201|    0.723956|    0.013464|
|         330|   -5.562765|   -7.436672|    0.723956|    0.013464|
|         331|   -5.567165|   -7.438212|    0.723955|    0.013464|
|         332|   -5.570305|   -7.439831|    0.723955|    0.013464|
|         333|   -5.572771|   -7.441535|    0.723955|    0.013464|
|         334|   -5.575183|   -7.443329|    0.723954|    0.013464|
|         335|   -5.578077|   -7.445218|    0.723954|    0.013463|
|         336|   -5.581806|   -7.447204|    0.723954|    0.013463|
|         337|   -5.586491|   -7.449292|    0.723954|    0.013463|
|         338|   -5.592020|   -7.451482|    0.723954|    0.013463|
|         339|   -5.598077|   -7.453775|    0.723954|    0.013463|
|         340|   -5.604206|   -7.456170|    0.723953|    0.013463|
|         341|   -5.609891|   -7.458667|    0.723953|    0.013463|
|         342|   -5.614675|   -7.461264|    0.723953|    0.013463|
|         343|   -5.618265|   -7.463961|    0.723953|    0.013463|
|         344|   -5.620607|   -7.466758|    0.723953|    0.013463|
|         345|   -5.621896|   -7.469654|    0.723953|    0.013463|
|         346|   -5.622499|   -7.472650|    0.723953|    0.013463|
|         347|   -5.622851|   -7.475746|    0.723953|    0.013463|
|         348|   -5.623339|   -7.478946|    0.723953|    0.013463|
|         349|   -5.624228|   -7.482251|    0.723953|    0.013462|
|         350|   -5.625628|   -7.485665|    0.723953|    0.013462|
|         351|   -5.627508|   -7.489193|    0.723954|    0.013462|
|         352|   -5.629735|   -7.492840|    0.723954|    0.013462|
|         353|   -5.632129|   -7.496614|    0.723954|    0.013462|
|         354|   -5.634513|   -7.500522|    0.723954|    0.013462|
|         355|   -5.636759|   -7.504574|    0.723954|    0.013462|
|         356|   -5.638808|   -7.508778|    0.723955|    0.013462|
|         357|   -5.640672|   -7.513148|    0.723955|    0.013462|
|         358|   -5.642422|   -7.517696|    0.723956|    0.013462|
|         359|   -5.644162|   -7.522433|    0.723956|    0.013462|
|         360|   -5.646004|   -7.527372|    0.723957|    0.013462|
|         361|   -5.648052|   -7.532525|    0.723957|    0.013462|
|         362|   -5.650386|   -7.537904|    0.723958|    0.013461|
|         363|   -5.653062|   -7.543516|    0.723958|    0.013461|
|         364|   -5.656116|   -7.549372|    0.723959|    0.013461|
|         365|   -5.659565|   -7.555475|    0.723960|    0.013461|
|         366|   -5.663417|   -7.561829|    0.723961|    0.013461|
|         367|   -5.667680|   -7.568432|    0.723962|    0.013461|
|         368|   -5.672357|   -7.575279|    0.723962|    0.013461|
|         369|   -5.677456|   -7.582360|    0.723963|    0.013461|
|         370|   -5.682984|   -7.589658|    0.723964|    0.013461|
|         371|   -5.688945|   -7.597153|    0.723965|    0.013461|
|         372|   -5.695343|   -7.604818|    0.723966|    0.013461|
|         373|   -5.702175|   -7.612620|    0.723967|    0.013460|
|         374|   -5.709431|   -7.620520|    0.723967|    0.013460|
|         375|   -5.717098|   -7.628475|    0.723968|    0.013460|
|         376|   -5.725152|   -7.636438|    0.723969|    0.013460|
|         377|   -5.733564|   -7.644359|    0.723970|    0.013460|
|         378|   -5.742299|   -7.652184|    0.723970|    0.013460|
|         379|   -5.751315|   -7.659863|    0.723971|    0.013460|
|         380|   -5.760566|   -7.667346|    0.723972|    0.013460|
|         381|   -5.769997|   -7.674590|    0.723972|    0.013460|
|         382|   -5.779550|   -7.681555|    0.723972|    0.013460|
|         383|   -5.789158|   -7.688214|    0.723973|    0.013460|
|         384|   -5.798752|   -7.694548|    0.723973|    0.013460|
|         385|   -5.808256|   -7.700551|    0.723973|    0.013460|
|         386|   -5.817591|   -7.706228|    0.723973|    0.013460|
|         387|   -5.826675|   -7.711595|    0.723973|    0.013459|
|         388|   -5.835426|   -7.716682|    0.723973|    0.013459|
|         389|   -5.843763|   -7.721527|    0.723973|    0.013459|
|         390|   -5.851610|   -7.726175|    0.723972|    0.013459|
|         391|   -5.858895|   -7.730680|    0.723972|    0.013459|
|         392|   -5.865556|   -7.735095|    0.723972|    0.013459|
|         393|   -5.871542|   -7.739477|    0.723971|    0.013459|
|         394|   -5.876816|   -7.743880|    0.723971|    0.013459|
|         395|   -5.881352|   -7.748358|    0.723970|    0.013459|
|         396|   -5.885144|   -7.752957|    0.723969|    0.013459|
|         397|   -5.888199|   -7.757720|    0.723969|    0.013459|
|         398|   -5.890539|   -7.762683|    0.723968|    0.013459|
|         399|   -5.892204|   -7.767873|    0.723967|    0.013459|
|         400|   -5.893242|   -7.773310|    0.723966|    0.013459|
|         401|   -5.893715|   -7.779009|    0.723965|    0.013461|
+-----------------------------------------------------------------------+
|Fixed CL Mode                           |Value                         |
+-----------------------------------------------------------------------+
|Current CL                              |0.723965                      |
|Target CL                               |0.724                         |
|Previous AOA                            |2.31157                       |
|Changed AoA by                          |0.000169254                   |
+-----------------------------------------------------------------------+
+----------------------------------------------------------------+
|  Inner_Iter|    rms[Rho]|     rms[nu]|          CL|          CD|
+----------------------------------------------------------------+
|         402|   -3.965193|   -7.733061|    0.723964|    0.013461|
|         403|   -4.349164|   -7.763129|    0.723964|    0.013461|
|         404|   -4.591868|   -7.776864|    0.723963|    0.013461|
|         405|   -4.669582|   -7.787495|    0.723962|    0.013462|
|         406|   -4.723045|   -7.797227|    0.723961|    0.013462|
|         407|   -4.792921|   -7.806567|    0.723960|    0.013462|
|         408|   -4.879367|   -7.815649|    0.723959|    0.013462|
|         409|   -4.969702|   -7.824532|    0.723958|    0.013462|
|         410|   -5.047729|   -7.833251|    0.723958|    0.013462|
|         411|   -5.105176|   -7.841796|    0.723957|    0.013462|
|         412|   -5.143419|   -7.850167|    0.723956|    0.013462|
|         413|   -5.166031|   -7.858435|    0.723955|    0.013462|
|         414|   -5.176759|   -7.866709|    0.723955|    0.013462|
|         415|   -5.181446|   -7.875086|    0.723954|    0.013462|
|         416|   -5.186704|   -7.883614|    0.723953|    0.013462|
|         417|   -5.196947|   -7.892309|    0.723953|    0.013462|
|         418|   -5.213193|   -7.901188|    0.723952|    0.013463|
|         419|   -5.233669|   -7.910294|    0.723952|    0.013463|
|         420|   -5.255329|   -7.919680|    0.723951|    0.013463|
|         421|   -5.275673|   -7.929396|    0.723951|    0.013463|
|         422|   -5.293955|   -7.939467|    0.723950|    0.013463|
|         423|   -5.311031|   -7.949892|    0.723950|    0.013463|
|         424|   -5.328206|   -7.960654|    0.723950|    0.013463|
|         425|   -5.346185|   -7.971740|    0.723950|    0.013463|
|         426|   -5.364769|   -7.983127|    0.723949|    0.013463|
|         427|   -5.383113|   -7.994807|    0.723949|    0.013464|
|         428|   -5.400191|   -8.006781|    0.723949|    0.013464|
|         429|   -5.415135|   -8.019054|    0.723949|    0.013464|
|         430|   -5.427419|   -8.031628|    0.723949|    0.013464|
|         431|   -5.436954|   -8.044504|    0.723949|    0.013464|
|         432|   -5.444127|   -8.057676|    0.723949|    0.013464|
|         433|   -5.449754|   -8.071119|    0.723949|    0.013464|
|         434|   -5.454898|   -8.084799|    0.723949|    0.013464|
|         435|   -5.460622|   -8.098661|    0.723949|    0.013464|
|         436|   -5.467759|   -8.112628|    0.723949|    0.013464|
|         437|   -5.476778|   -8.126609|    0.723949|    0.013464|
|         438|   -5.487736|   -8.140488|    0.723949|    0.013464|
|         439|   -5.500288|   -8.154144|    0.723949|    0.013464|
|         440|   -5.513730|   -8.167456|    0.723949|    0.013464|
|         441|   -5.527108|   -8.180309|    0.723950|    0.013464|
|         442|   -5.539407|   -8.192592|    0.723950|    0.013464|
|         443|   -5.549812|   -8.204226|    0.723950|    0.013464|
|         444|   -5.557964|   -8.215115|    0.723950|    0.013464|
|         445|   -5.564077|   -8.225205|    0.723951|    0.013464|
|         446|   -5.568849|   -8.234445|    0.723951|    0.013464|
|         447|   -5.573224|   -8.242795|    0.723952|    0.013464|
|         448|   -5.578117|   -8.250211|    0.723952|    0.013464|
|         449|   -5.584212|   -8.256642|    0.723953|    0.013464|
|         450|   -5.591864|   -8.262029|    0.723953|    0.013464|
|         451|   -5.601097|   -8.266304|    0.723954|    0.013464|
|         452|   -5.611659|   -8.269403|    0.723954|    0.013464|
|         453|   -5.623116|   -8.271250|    0.723955|    0.013464|
|         454|   -5.634963|   -8.271821|    0.723956|    0.013464|
|         455|   -5.646737|   -8.271121|    0.723956|    0.013464|
|         456|   -5.658110|   -8.269176|    0.723957|    0.013464|
|         457|   -5.668940|   -8.266042|    0.723958|    0.013464|
|         458|   -5.679269|   -8.261872|    0.723959|    0.013464|
|         459|   -5.689280|   -8.256830|    0.723960|    0.013464|
|         460|   -5.699230|   -8.251104|    0.723961|    0.013464|
|         461|   -5.709376|   -8.244892|    0.723962|    0.013464|
|         462|   -5.719928|   -8.238407|    0.723963|    0.013463|
|         463|   -5.731022|   -8.231869|    0.723964|    0.013463|
|         464|   -5.742718|   -8.225494|    0.723966|    0.013463|
|         465|   -5.755013|   -8.219485|    0.723967|    0.013463|
|         466|   -5.767859|   -8.214030|    0.723968|    0.013463|
|         467|   -5.781192|   -8.209301|    0.723969|    0.013463|
|         468|   -5.794943|   -8.205446|    0.723971|    0.013463|
|         469|   -5.809048|   -8.202584|    0.723972|    0.013463|
|         470|   -5.823455|   -8.200817|    0.723973|    0.013463|
|         471|   -5.838114|   -8.200219|    0.723974|    0.013463|
|         472|   -5.852972|   -8.200832|    0.723976|    0.013463|
|         473|   -5.867967|   -8.202674|    0.723977|    0.013463|
|         474|   -5.883019|   -8.205727|    0.723978|    0.013462|
|         475|   -5.898027|   -8.209937|    0.723979|    0.013462|
|         476|   -5.912873|   -8.215214|    0.723981|    0.013462|
|         477|   -5.927421|   -8.221420|    0.723982|    0.013462|
|         478|   -5.941528|   -8.228371|    0.723983|    0.013462|
|         479|   -5.955046|   -8.235836|    0.723984|    0.013462|
|         480|   -5.967835|   -8.243531|    0.723984|    0.013462|
|         481|   -5.979766|   -8.251126|    0.723985|    0.013462|
|         482|   -5.990728|   -8.258262|    0.723986|    0.013462|
|         483|   -6.000639|   -8.264564|    0.723986|    0.013462|
|         484|   -6.009440|   -8.269676|    0.723987|    0.013461|
|         485|   -6.017109|   -8.273289|    0.723987|    0.013461|
|         486|   -6.023654|   -8.275184|    0.723988|    0.013461|
|         487|   -6.029114|   -8.275255|    0.723988|    0.013461|
|         488|   -6.033560|   -8.273525|    0.723988|    0.013461|
|         489|   -6.037083|   -8.270144|    0.723988|    0.013461|
|         490|   -6.039792|   -8.265368|    0.723988|    0.013461|
|         491|   -6.041806|   -8.259529|    0.723988|    0.013461|
|         492|   -6.043246|   -8.252999|    0.723988|    0.013460|
|         493|   -6.044231|   -8.246157|    0.723987|    0.013460|
|         494|   -6.044872|   -8.239361|    0.723987|    0.013460|
|         495|   -6.045269|   -8.232934|    0.723987|    0.013460|
|         496|   -6.045506|   -8.227153|    0.723986|    0.013460|
|         497|   -6.045658|   -8.222243|    0.723985|    0.013460|
|         498|   -6.045782|   -8.218383|    0.723985|    0.013460|
|         499|   -6.045924|   -8.215704|    0.723984|    0.013460|
|         500|   -6.046121|   -8.214295|    0.723983|    0.013460|
|         501|   -6.046396|   -8.214203|    0.723983|    0.013461|
+-----------------------------------------------------------------------+
|Fixed CL Mode                           |Value                         |
+-----------------------------------------------------------------------+
|Current CL                              |0.723983                      |
|Target CL                               |0.724                         |
|Previous AOA                            |2.31174                       |
|Changed AoA by                          |8.29426e-005                  |
+-----------------------------------------------------------------------+
+----------------------------------------------------------------+
|  Inner_Iter|    rms[Rho]|     rms[nu]|          CL|          CD|
+----------------------------------------------------------------+
|         502|   -4.274852|   -8.130370|    0.723982|    0.013460|
|         503|   -4.657569|   -8.170744|    0.723981|    0.013460|
|         504|   -4.896582|   -8.186949|    0.723980|    0.013460|
|         505|   -4.972302|   -8.198820|    0.723979|    0.013460|
|         506|   -5.025056|   -8.209687|    0.723978|    0.013460|
|         507|   -5.094241|   -8.220232|    0.723977|    0.013460|
|         508|   -5.179827|   -8.230540|    0.723977|    0.013460|
|         509|   -5.269608|   -8.240565|    0.723976|    0.013460|
|         510|   -5.348253|   -8.250144|    0.723975|    0.013460|
|         511|   -5.407849|   -8.258973|    0.723974|    0.013460|
|         512|   -5.449212|   -8.266715|    0.723973|    0.013460|
|         513|   -5.475005|   -8.273118|    0.723972|    0.013460|
|         514|   -5.488207|   -8.278003|    0.723971|    0.013459|
|         515|   -5.494349|   -8.281204|    0.723971|    0.013459|
|         516|   -5.500194|   -8.282552|    0.723970|    0.013459|
|         517|   -5.510481|   -8.281933|    0.723969|    0.013459|
|         518|   -5.526505|   -8.279360|    0.723968|    0.013459|
|         519|   -5.546705|   -8.274991|    0.723968|    0.013459|
|         520|   -5.568223|   -8.269090|    0.723967|    0.013459|
|         521|   -5.588716|   -8.261970|    0.723967|    0.013459|
|         522|   -5.607529|   -8.253940|    0.723966|    0.013459|
|         523|   -5.625509|   -8.245289|    0.723966|    0.013459|
|         524|   -5.643854|   -8.236277|    0.723965|    0.013459|
|         525|   -5.663103|   -8.227150|    0.723965|    0.013459|
|         526|   -5.682836|   -8.218132|    0.723965|    0.013459|
|         527|   -5.701986|   -8.209431|    0.723964|    0.013459|
|         528|   -5.719348|   -8.201206|    0.723964|    0.013459|
|         529|   -5.733990|   -8.193594|    0.723964|    0.013459|
|         530|   -5.745471|   -8.186704|    0.723964|    0.013459|
|         531|   -5.753899|   -8.180612|    0.723964|    0.013460|
|         532|   -5.759904|   -8.175361|    0.723964|    0.013460|
|         533|   -5.764504|   -8.170971|    0.723964|    0.013460|
|         534|   -5.768877|   -8.167434|    0.723964|    0.013460|
|         535|   -5.774100|   -8.164721|    0.723964|    0.013460|
|         536|   -5.780947|   -8.162782|    0.723964|    0.013460|
|         537|   -5.789781|   -8.161557|    0.723964|    0.013460|
|         538|   -5.800540|   -8.160975|    0.723964|    0.013460|
|         539|   -5.812752|   -8.160955|    0.723964|    0.013460|
|         540|   -5.825606|   -8.161416|    0.723964|    0.013460|
|         541|   -5.838070|   -8.162275|    0.723964|    0.013460|
|         542|   -5.849105|   -8.163449|    0.723965|    0.013460|
|         543|   -5.857933|   -8.164859|    0.723965|    0.013461|
|         544|   -5.864281|   -8.166431|    0.723965|    0.013461|
|         545|   -5.868464|   -8.168096|    0.723965|    0.013461|
|         546|   -5.871262|   -8.169789|    0.723966|    0.013461|
|         547|   -5.873647|   -8.171452|    0.723966|    0.013461|
|         548|   -5.876520|   -8.173036|    0.723966|    0.013461|
|         549|   -5.880514|   -8.174497|    0.723966|    0.013461|
|         550|   -5.885928|   -8.175798|    0.723967|    0.013461|
|         551|   -5.892732|   -8.176911|    0.723967|    0.013461|
|         552|   -5.900646|   -8.177814|    0.723967|    0.013462|
|         553|   -5.909234|   -8.178485|    0.723967|    0.013462|
|         554|   -5.918021|   -8.178911|    0.723968|    0.013462|
|         555|   -5.926598|   -8.179093|    0.723968|    0.013462|
|         556|   -5.934698|   -8.179035|    0.723968|    0.013462|
|         557|   -5.942233|   -8.178744|    0.723968|    0.013462|
|         558|   -5.949277|   -8.178227|    0.723969|    0.013462|
|         559|   -5.956019|   -8.177495|    0.723969|    0.013462|
|         560|   -5.962693|   -8.176560|    0.723969|    0.013462|
|         561|   -5.969523|   -8.175439|    0.723970|    0.013462|
|         562|   -5.976684|   -8.174154|    0.723970|    0.013462|
|         563|   -5.984281|   -8.172730|    0.723970|    0.013462|
|         564|   -5.992355|   -8.171199|    0.723971|    0.013462|
|         565|   -6.000899|   -8.169595|    0.723971|    0.013463|
|         566|   -6.009877|   -8.167957|    0.723972|    0.013463|
|         567|   -6.019241|   -8.166330|    0.723972|    0.013463|
|         568|   -6.028945|   -8.164757|    0.723972|    0.013463|
|         569|   -6.038952|   -8.163286|    0.723973|    0.013463|
|         570|   -6.049234|   -8.161962|    0.723973|    0.013463|
|         571|   -6.059768|   -8.160825|    0.723973|    0.013463|
|         572|   -6.070529|   -8.159914|    0.723974|    0.013463|
|         573|   -6.081486|   -8.159260|    0.723974|    0.013463|
|         574|   -6.092595|   -8.158887|    0.723975|    0.013463|
|         575|   -6.103802|   -8.158812|    0.723975|    0.013463|
|         576|   -6.115039|   -8.159038|    0.723975|    0.013463|
|         577|   -6.126228|   -8.159560|    0.723976|    0.013463|
|         578|   -6.137286|   -8.160359|    0.723976|    0.013463|
|         579|   -6.148126|   -8.161408|    0.723976|    0.013463|
|         580|   -6.158660|   -8.162667|    0.723976|    0.013463|
|         581|   -6.168805|   -8.164087|    0.723977|    0.013463|
|         582|   -6.178481|   -8.165615|    0.723977|    0.013463|
|         583|   -6.187618|   -8.167191|    0.723977|    0.013463|
|         584|   -6.196155|   -8.168755|    0.723977|    0.013463|
|         585|   -6.204043|   -8.170249|    0.723977|    0.013463|
|         586|   -6.211246|   -8.171620|    0.723977|    0.013463|
|         587|   -6.217748|   -8.172824|    0.723977|    0.013463|
|         588|   -6.223545|   -8.173830|    0.723977|    0.013463|
|         589|   -6.228654|   -8.174623|    0.723977|    0.013463|
|         590|   -6.233106|   -8.175200|    0.723977|    0.013463|
|         591|   -6.236946|   -8.175580|    0.723977|    0.013463|
|         592|   -6.240234|   -8.175794|    0.723976|    0.013463|
|         593|   -6.243035|   -8.175887|    0.723976|    0.013463|
|         594|   -6.245422|   -8.175918|    0.723976|    0.013463|
|         595|   -6.247472|   -8.175954|    0.723975|    0.013463|
|         596|   -6.249261|   -8.176067|    0.723975|    0.013463|
|         597|   -6.250862|   -8.176328|    0.723975|    0.013463|
|         598|   -6.252348|   -8.176810|    0.723974|    0.013463|
|         599|   -6.253785|   -8.177579|    0.723974|    0.013463|
|         600|   -6.255233|   -8.178693|    0.723973|    0.013462|
|         601|   -6.256749|   -8.180201|    0.723973|    0.013464|
+-----------------------------------------------------------------------+
|Fixed CL Mode                           |Value                         |
+-----------------------------------------------------------------------+
|Current CL                              |0.723973                      |
|Target CL                               |0.724                         |
|Previous AOA                            |2.31182                       |
|Changed AoA by                          |0.000133164                   |
+-----------------------------------------------------------------------+
+----------------------------------------------------------------+
|  Inner_Iter|    rms[Rho]|     rms[nu]|          CL|          CD|
+----------------------------------------------------------------+
|         602|   -4.069346|   -8.027901|    0.723972|    0.013464|
|         603|   -4.453280|   -8.094120|    0.723972|    0.013464|
|         604|   -4.696085|   -8.119247|    0.723971|    0.013464|
|         605|   -4.774118|   -8.135262|    0.723971|    0.013464|
|         606|   -4.827950|   -8.148308|    0.723970|    0.013464|
|         607|   -4.898313|   -8.159881|    0.723970|    0.013464|
|         608|   -4.985497|   -8.170404|    0.723969|    0.013464|
|         609|   -5.076895|   -8.180077|    0.723969|    0.013463|
|         610|   -5.156166|   -8.189032|    0.723969|    0.013463|
|         611|   -5.214737|   -8.197240|    0.723968|    0.013463|
|         612|   -5.253794|   -8.204691|    0.723968|    0.013463|
|         613|   -5.276871|   -8.211566|    0.723967|    0.013463|
|         614|   -5.287771|   -8.218174|    0.723967|    0.013463|
|         615|   -5.292494|   -8.224754|    0.723967|    0.013463|
|         616|   -5.297837|   -8.231383|    0.723966|    0.013463|
|         617|   -5.308337|   -8.238019|    0.723966|    0.013463|
|         618|   -5.325041|   -8.244649|    0.723966|    0.013463|
|         619|   -5.346133|   -8.251323|    0.723965|    0.013463|
|         620|   -5.368469|   -8.258140|    0.723965|    0.013463|
|         621|   -5.389448|   -8.265177|    0.723965|    0.013462|
|         622|   -5.408284|   -8.272447|    0.723965|    0.013462|
|         623|   -5.425872|   -8.279878|    0.723965|    0.013462|
|         624|   -5.443588|   -8.287366|    0.723965|    0.013462|
|         625|   -5.462198|   -8.294787|    0.723965|    0.013462|
|         626|   -5.481510|   -8.302086|    0.723965|    0.013462|
|         627|   -5.500653|   -8.309172|    0.723965|    0.013462|
|         628|   -5.518541|   -8.316028|    0.723965|    0.013462|
|         629|   -5.534234|   -8.322649|    0.723965|    0.013462|
|         630|   -5.547143|   -8.329056|    0.723965|    0.013462|
|         631|   -5.557135|   -8.335288|    0.723965|    0.013462|
|         632|   -5.564593|   -8.341384|    0.723966|    0.013462|
|         633|   -5.570371|   -8.347376|    0.723966|    0.013462|
|         634|   -5.575607|   -8.353281|    0.723966|    0.013462|
|         635|   -5.581445|   -8.359087|    0.723966|    0.013462|
|         636|   -5.588795|   -8.364780|    0.723967|    0.013462|
|         637|   -5.598183|   -8.370303|    0.723967|    0.013462|
|         638|   -5.609704|   -8.375620|    0.723967|    0.013462|
|         639|   -5.623019|   -8.380681|    0.723968|    0.013462|
|         640|   -5.637402|   -8.385445|    0.723968|    0.013462|
|         641|   -5.651837|   -8.389893|    0.723969|    0.013462|
|         642|   -5.665218|   -8.394031|    0.723969|    0.013461|
|         643|   -5.676631|   -8.397884|    0.723969|    0.013461|
|         644|   -5.685640|   -8.401498|    0.723970|    0.013461|
|         645|   -5.692442|   -8.404926|    0.723970|    0.013461|
|         646|   -5.697778|   -8.408233|    0.723971|    0.013461|
|         647|   -5.702678|   -8.411466|    0.723972|    0.013461|
|         648|   -5.708149|   -8.414659|    0.723972|    0.013461|
|         649|   -5.714953|   -8.417830|    0.723973|    0.013461|
|         650|   -5.723492|   -8.420967|    0.723973|    0.013461|
|         651|   -5.733804|   -8.424057|    0.723974|    0.013461|
|         652|   -5.745617|   -8.427041|    0.723975|    0.013461|
|         653|   -5.758447|   -8.429854|    0.723975|    0.013461|
|         654|   -5.771720|   -8.432445|    0.723976|    0.013462|
|         655|   -5.784895|   -8.434761|    0.723977|    0.013462|
|         656|   -5.797576|   -8.436737|    0.723978|    0.013462|
|         657|   -5.809579|   -8.438371|    0.723979|    0.013462|
|         658|   -5.820936|   -8.439676|    0.723979|    0.013462|
|         659|   -5.831852|   -8.440670|    0.723980|    0.013462|
|         660|   -5.842625|   -8.441392|    0.723981|    0.013462|
|         661|   -5.853562|   -8.441907|    0.723982|    0.013462|
|         662|   -5.864919|   -8.442307|    0.723983|    0.013462|
|         663|   -5.876868|   -8.442709|    0.723984|    0.013462|
|         664|   -5.889494|   -8.443255|    0.723985|    0.013462|
|         665|   -5.902806|   -8.444099|    0.723986|    0.013462|
|         666|   -5.916766|   -8.445403|    0.723987|    0.013462|
|         667|   -5.931315|   -8.447328|    0.723988|    0.013462|
|         668|   -5.946388|   -8.450025|    0.723989|    0.013462|
|         669|   -5.961933|   -8.453641|    0.723991|    0.013462|
|         670|   -5.977905|   -8.458272|    0.723992|    0.013462|
|         671|   -5.994272|   -8.464010|    0.723993|    0.013462|
|         672|   -6.010996|   -8.470898|    0.723994|    0.013462|
|         673|   -6.028027|   -8.478926|    0.723995|    0.013462|
|         674|   -6.045297|   -8.488022|    0.723996|    0.013462|
|         675|   -6.062708|   -8.498040|    0.723996|    0.013462|
|         676|   -6.080140|   -8.508737|    0.723997|    0.013462|
|         677|   -6.097445|   -8.519762|    0.723998|    0.013462|
|         678|   -6.114458|   -8.530649|    0.723999|    0.013462|
|         679|   -6.131004|   -8.540815|    0.723999|    0.013462|
|         680|   -6.146903|   -8.549591|    0.724000|    0.013462|
|         681|   -6.161981|   -8.556277|    0.724000|    0.013462|
|         682|   -6.176077|   -8.560224|    0.724001|    0.013462|
|         683|   -6.189051|   -8.560941|    0.724001|    0.013462|
|         684|   -6.200792|   -8.558185|    0.724001|    0.013463|
|         685|   -6.211226|   -8.552020|    0.724002|    0.013463|
|         686|   -6.220318|   -8.542805|    0.724002|    0.013463|
|         687|   -6.228076|   -8.531125|    0.724002|    0.013463|
|         688|   -6.234548|   -8.517693|    0.724002|    0.013463|
|         689|   -6.239823|   -8.503249|    0.724001|    0.013463|
|         690|   -6.244018|   -8.488487|    0.724001|    0.013463|
|         691|   -6.247273|   -8.474008|    0.724001|    0.013463|
|         692|   -6.249738|   -8.460302|    0.724000|    0.013463|
|         693|   -6.251566|   -8.447755|    0.724000|    0.013463|
|         694|   -6.252906|   -8.436653|    0.723999|    0.013463|
|         695|   -6.253894|   -8.427204|    0.723999|    0.013463|
|         696|   -6.254651|   -8.419550|    0.723998|    0.013463|
|         697|   -6.255283|   -8.413781|    0.723998|    0.013463|
|         698|   -6.255875|   -8.409941|    0.723997|    0.013463|
|         699|   -6.256499|   -8.408041|    0.723996|    0.013462|
|         700|   -6.257210|   -8.408055|    0.723995|    0.013462|
|         701|   -6.258050|   -8.409929|    0.723994|    0.013463|
+-----------------------------------------------------------------------+
|Fixed CL Mode                           |Value                         |
+-----------------------------------------------------------------------+
|Current CL                              |0.723994                      |
|Target CL                               |0.724                         |
|Previous AOA                            |2.31195                       |
|Changed AoA by                          |2.3836e-005                   |
+-----------------------------------------------------------------------+
+----------------------------------------------------------------+
|  Inner_Iter|    rms[Rho]|     rms[nu]|          CL|          CD|
+----------------------------------------------------------------+
|         702|   -4.816021|   -8.392297|    0.723994|    0.013463|
|         703|   -5.194851|   -8.407274|    0.723993|    0.013463|
|         704|   -5.423413|   -8.416957|    0.723992|    0.013463|
|         705|   -5.493913|   -8.426609|    0.723991|    0.013463|
|         706|   -5.544494|   -8.436814|    0.723990|    0.013463|
|         707|   -5.610794|   -8.447435|    0.723989|    0.013463|
|         708|   -5.691849|   -8.458142|    0.723988|    0.013463|
|         709|   -5.776147|   -8.468512|    0.723988|    0.013463|
|         710|   -5.850542|   -8.478055|    0.723987|    0.013463|
|         711|   -5.908961|   -8.486236|    0.723986|    0.013463|
|         712|   -5.952143|   -8.492540|    0.723985|    0.013462|
|         713|   -5.981573|   -8.496553|    0.723984|    0.013462|
|         714|   -5.998771|   -8.498006|    0.723984|    0.013462|
|         715|   -6.007919|   -8.496802|    0.723983|    0.013462|
|         716|   -6.015058|   -8.493022|    0.723982|    0.013462|
|         717|   -6.024897|   -8.486915|    0.723982|    0.013462|
|         718|   -6.039125|   -8.478869|    0.723981|    0.013462|
|         719|   -6.056806|   -8.469361|    0.723981|    0.013462|
|         720|   -6.075829|   -8.458890|    0.723980|    0.013462|
|         721|   -6.094483|   -8.447926|    0.723980|    0.013462|
|         722|   -6.112355|   -8.436877|    0.723979|    0.013462|
|         723|   -6.130073|   -8.426082|    0.723979|    0.013462|
|         724|   -6.148370|   -8.415804|    0.723979|    0.013462|
|         725|   -6.167304|   -8.406247|    0.723979|    0.013462|
|         726|   -6.186090|   -8.397556|    0.723978|    0.013462|
|         727|   -6.203454|   -8.389838|    0.723978|    0.013462|
|         728|   -6.218174|   -8.383150|    0.723978|    0.013462|
|         729|   -6.229501|   -8.377523|    0.723978|    0.013462|
|         730|   -6.237320|   -8.372953|    0.723978|    0.013462|
|         731|   -6.242096|   -8.369417|    0.723978|    0.013462|
|         732|   -6.244696|   -8.366869|    0.723978|    0.013462|
|         733|   -6.246168|   -8.365244|    0.723978|    0.013462|
|         734|   -6.247515|   -8.364459|    0.723978|    0.013462|
|         735|   -6.249499|   -8.364417|    0.723979|    0.013462|
|         736|   -6.252537|   -8.365009|    0.723979|    0.013462|
|         737|   -6.256667|   -8.366116|    0.723979|    0.013462|
|         738|   -6.261593|   -8.367614|    0.723979|    0.013462|
|         739|   -6.266760|   -8.369377|    0.723979|    0.013462|
|         740|   -6.271475|   -8.371282|    0.723980|    0.013462|
|         741|   -6.275045|   -8.373209|    0.723980|    0.013462|
|         742|   -6.276946|   -8.375052|    0.723980|    0.013462|
|         743|   -6.276959|   -8.376716|    0.723981|    0.013462|
|         744|   -6.275224|   -8.378126|    0.723981|    0.013462|
|         745|   -6.272194|   -8.379226|    0.723981|    0.013462|
|         746|   -6.268492|   -8.379981|    0.723981|    0.013462|
|         747|   -6.264746|   -8.380376|    0.723982|    0.013462|
|         748|   -6.261463|   -8.380419|    0.723982|    0.013462|
|         749|   -6.258955|   -8.380130|    0.723982|    0.013462|
|         750|   -6.257332|   -8.379548|    0.723983|    0.013462|
|         751|   -6.256540|   -8.378717|    0.723983|    0.013462|
|         752|   -6.256418|   -8.377685|    0.723983|    0.013462|
|         753|   -6.256762|   -8.376506|    0.723983|    0.013462|
|         754|   -6.257385|   -8.375232|    0.723984|    0.013462|
|         755|   -6.258153|   -8.373909|    0.723984|    0.013462|
|         756|   -6.259009|   -8.372575|    0.723984|    0.013462|
|         757|   -6.259965|   -8.371260|    0.723984|    0.013462|
|         758|   -6.261088|   -8.369986|    0.723984|    0.013462|
|         759|   -6.262472|   -8.368767|    0.723985|    0.013462|
|         760|   -6.264215|   -8.367609|    0.723985|    0.013462|
|         761|   -6.266396|   -8.366514|    0.723985|    0.013462|
|         762|   -6.269070|   -8.365479|    0.723985|    0.013462|
|         763|   -6.272263|   -8.364500|    0.723985|    0.013462|
|         764|   -6.275976|   -8.363573|    0.723986|    0.013462|
|         765|   -6.280194|   -8.362697|    0.723986|    0.013462|
|         766|   -6.284887|   -8.361874|    0.723986|    0.013462|
|         767|   -6.290026|   -8.361111|    0.723986|    0.013462|
|         768|   -6.295575|   -8.360421|    0.723987|    0.013462|
|         769|   -6.301500|   -8.359824|    0.723987|    0.013462|
|         770|   -6.307766|   -8.359341|    0.723987|    0.013462|
|         771|   -6.314333|   -8.358999|    0.723987|    0.013462|
|         772|   -6.321153|   -8.358830|    0.723987|    0.013462|
|         773|   -6.328172|   -8.358865|    0.723988|    0.013462|
|         774|   -6.335326|   -8.359135|    0.723988|    0.013462|
|         775|   -6.342540|   -8.359667|    0.723988|    0.013462|
|         776|   -6.349728|   -8.360484|    0.723988|    0.013462|
|         777|   -6.356800|   -8.361602|    0.723988|    0.013462|
|         778|   -6.363658|   -8.363031|    0.723989|    0.013462|
|         779|   -6.370201|   -8.364768|    0.723989|    0.013462|
|         780|   -6.376330|   -8.366804|    0.723989|    0.013462|
|         781|   -6.381948|   -8.369115|    0.723989|    0.013462|
|         782|   -6.386966|   -8.371670|    0.723989|    0.013462|
|         783|   -6.391308|   -8.374426|    0.723989|    0.013462|
|         784|   -6.394910|   -8.377332|    0.723990|    0.013462|
|         785|   -6.397727|   -8.380332|    0.723990|    0.013462|
|         786|   -6.399732|   -8.383361|    0.723990|    0.013462|
|         787|   -6.400921|   -8.386358|    0.723990|    0.013462|
|         788|   -6.401310|   -8.389258|    0.723990|    0.013462|
|         789|   -6.400934|   -8.392007|    0.723990|    0.013462|
|         790|   -6.399847|   -8.394554|    0.723990|    0.013462|
|         791|   -6.398117|   -8.396862|    0.723990|    0.013462|
|         792|   -6.395822|   -8.398909|    0.723990|    0.013461|
|         793|   -6.393051|   -8.400685|    0.723990|    0.013461|
|         794|   -6.389895|   -8.402199|    0.723990|    0.013461|
|         795|   -6.386446|   -8.403472|    0.723990|    0.013461|
|         796|   -6.382795|   -8.404539|    0.723990|    0.013461|
|         797|   -6.379028|   -8.405448|    0.723990|    0.013461|
|         798|   -6.375229|   -8.406251|    0.723990|    0.013461|
|         799|   -6.371472|   -8.407005|    0.723990|    0.013461|
|         800|   -6.367826|   -8.407770|    0.723990|    0.013461|
|         801|   -6.364352|   -8.408600|    0.723990|    0.013462|
+-----------------------------------------------------------------------+
|Fixed CL Mode                           |Value                         |
+-----------------------------------------------------------------------+
|Current CL                              |0.72399                       |
|Target CL                               |0.724                         |
|Previous AOA                            |2.31198                       |
|Changed AoA by                          |5.08529e-005                  |
+-----------------------------------------------------------------------+
+----------------------------------------------------------------+
|  Inner_Iter|    rms[Rho]|     rms[nu]|          CL|          CD|
+----------------------------------------------------------------+
|         802|   -4.487361|   -8.331133|    0.723990|    0.013462|
|         803|   -4.870652|   -8.367735|    0.723989|    0.013462|
|         804|   -5.111521|   -8.380392|    0.723989|    0.013462|
|         805|   -5.188468|   -8.388215|    0.723989|    0.013462|
|         806|   -5.241870|   -8.394511|    0.723989|    0.013462|
|         807|   -5.311750|   -8.400077|    0.723989|    0.013462|
|         808|   -5.398210|   -8.405160|    0.723989|    0.013462|
|         809|   -5.488784|   -8.409886|    0.723988|    0.013462|
|         810|   -5.567536|   -8.414321|    0.723988|    0.013462|
|         811|   -5.626165|   -8.418452|    0.723988|    0.013462|
|         812|   -5.665713|   -8.422274|    0.723988|    0.013462|
|         813|   -5.689409|   -8.425858|    0.723988|    0.013462|
|         814|   -5.700804|   -8.429314|    0.723987|    0.013462|
|         815|   -5.705745|   -8.432723|    0.723987|    0.013462|
|         816|   -5.710976|   -8.436104|    0.723987|    0.013462|
|         817|   -5.721042|   -8.439440|    0.723987|    0.013462|
|         818|   -5.737034|   -8.442728|    0.723987|    0.013462|
|         819|   -5.757205|   -8.445992|    0.723987|    0.013462|
|         820|   -5.778518|   -8.449277|    0.723987|    0.013462|
|         821|   -5.798480|   -8.452625|    0.723987|    0.013462|
|         822|   -5.816350|   -8.456050|    0.723986|    0.013462|
|         823|   -5.832977|   -8.459545|    0.723986|    0.013462|
|         824|   -5.849641|   -8.463086|    0.723986|    0.013462|
|         825|   -5.867028|   -8.466651|    0.723986|    0.013462|
|         826|   -5.884927|   -8.470241|    0.723986|    0.013462|
|         827|   -5.902518|   -8.473854|    0.723986|    0.013462|
|         828|   -5.918829|   -8.477484|    0.723986|    0.013462|
|         829|   -5.933066|   -8.481151|    0.723986|    0.013462|
|         830|   -5.944782|   -8.484880|    0.723986|    0.013462|
|         831|   -5.953935|   -8.488690|    0.723986|    0.013462|
|         832|   -5.960918|   -8.492601|    0.723986|    0.013462|
|         833|   -5.966511|   -8.496625|    0.723986|    0.013462|
|         834|   -5.971717|   -8.500764|    0.723986|    0.013462|
|         835|   -5.977532|   -8.505017|    0.723986|    0.013462|
|         836|   -5.984737|   -8.509373|    0.723986|    0.013462|
|         837|   -5.993766|   -8.513813|    0.723986|    0.013462|
|         838|   -6.004667|   -8.518317|    0.723986|    0.013462|
|         839|   -6.017099|   -8.522866|    0.723987|    0.013462|
|         840|   -6.030382|   -8.527443|    0.723987|    0.013462|
|         841|   -6.043596|   -8.532035|    0.723987|    0.013462|
|         842|   -6.055765|   -8.536640|    0.723987|    0.013462|
|         843|   -6.066104|   -8.541260|    0.723987|    0.013462|
|         844|   -6.074263|   -8.545906|    0.723987|    0.013462|
|         845|   -6.080439|   -8.550588|    0.723987|    0.013462|
|         846|   -6.085294|   -8.555322|    0.723987|    0.013462|
|         847|   -6.089727|   -8.560122|    0.723987|    0.013462|
|         848|   -6.094610|   -8.565010|    0.723988|    0.013462|
|         849|   -6.100590|   -8.570003|    0.723988|    0.013462|
|         850|   -6.107995|   -8.575109|    0.723988|    0.013462|
|         851|   -6.116830|   -8.580336|    0.723988|    0.013462|
|         852|   -6.126828|   -8.585670|    0.723988|    0.013462|
|         853|   -6.137548|   -8.591109|    0.723988|    0.013462|
|         854|   -6.148484|   -8.596660|    0.723989|    0.013462|
|         855|   -6.159174|   -8.602327|    0.723989|    0.013462|
|         856|   -6.169297|   -8.608111|    0.723989|    0.013462|
|         857|   -6.178713|   -8.614017|    0.723989|    0.013462|
|         858|   -6.187464|   -8.620053|    0.723990|    0.013462|
|         859|   -6.195727|   -8.626232|    0.723990|    0.013462|
|         860|   -6.203742|   -8.632575|    0.723990|    0.013462|
|         861|   -6.211749|   -8.639113|    0.723991|    0.013462|
|         862|   -6.219938|   -8.645885|    0.723991|    0.013462|
|         863|   -6.228426|   -8.652938|    0.723991|    0.013462|
|         864|   -6.237263|   -8.660328|    0.723992|    0.013462|
|         865|   -6.246439|   -8.668114|    0.723992|    0.013462|
|         866|   -6.255915|   -8.676360|    0.723992|    0.013462|
|         867|   -6.265637|   -8.685128|    0.723993|    0.013462|
|         868|   -6.275555|   -8.694475|    0.723993|    0.013462|
|         869|   -6.285633|   -8.704446|    0.723994|    0.013462|
|         870|   -6.295845|   -8.715066|    0.723994|    0.013462|
|         871|   -6.306176|   -8.726341|    0.723994|    0.013462|
|         872|   -6.316615|   -8.738223|    0.723995|    0.013462|
|         873|   -6.327147|   -8.750632|    0.723995|    0.013462|
|         874|   -6.337748|   -8.763431|    0.723995|    0.013462|
|         875|   -6.348390|   -8.776403|    0.723996|    0.013462|
|         876|   -6.359035|   -8.789269|    0.723996|    0.013462|
|         877|   -6.369640|   -8.801671|    0.723996|    0.013462|
|         878|   -6.380163|   -8.813187|    0.723996|    0.013462|
|         879|   -6.390563|   -8.823344|    0.723997|    0.013462|
|         880|   -6.400803|   -8.831660|    0.723997|    0.013462|
|         881|   -6.410852|   -8.837699|    0.723997|    0.013462|
|         882|   -6.420688|   -8.841130|    0.723997|    0.013462|
|         883|   -6.430293|   -8.841785|    0.723997|    0.013462|
|         884|   -6.439654|   -8.839682|    0.723997|    0.013462|
|         885|   -6.448768|   -8.835041|    0.723997|    0.013462|
|         886|   -6.457635|   -8.828255|    0.723997|    0.013462|
|         887|   -6.466260|   -8.819822|    0.723997|    0.013462|
|         888|   -6.474653|   -8.810295|    0.723997|    0.013462|
|         889|   -6.482831|   -8.800222|    0.723997|    0.013462|
|         890|   -6.490810|   -8.790106|    0.723997|    0.013462|
|         891|   -6.498611|   -8.780388|    0.723997|    0.013462|
|         892|   -6.506254|   -8.771432|    0.723997|    0.013462|
|         893|   -6.513759|   -8.763532|    0.723996|    0.013462|
|         894|   -6.521145|   -8.756917|    0.723996|    0.013462|
|         895|   -6.528425|   -8.751759|    0.723996|    0.013462|
|         896|   -6.535611|   -8.748183|    0.723996|    0.013462|
|         897|   -6.542708|   -8.746274|    0.723995|    0.013462|
|         898|   -6.549719|   -8.746084|    0.723995|    0.013462|
|         899|   -6.556639|   -8.747636|    0.723995|    0.013462|
|         900|   -6.563464|   -8.750925|    0.723994|    0.013462|
|         901|   -6.570185|   -8.755917|    0.723994|    0.013462|
+-----------------------------------------------------------------------+
|Fixed CL Mode                           |Value                         |
+-----------------------------------------------------------------------+
|Current CL                              |0.723994                      |
|Target CL                               |0.724                         |
|Previous AOA                            |2.31203                       |
|Changed AoA by                          |2.75936e-005                  |
+-----------------------------------------------------------------------+
+----------------------------------------------------------------+
|  Inner_Iter|    rms[Rho]|     rms[nu]|          CL|          CD|
+----------------------------------------------------------------+
|         902|   -4.752842|   -8.652340|    0.723994|    0.013462|
|         903|   -5.135835|   -8.706233|    0.723993|    0.013462|
[...]
|        5299|   -6.157784|   -7.955393|    0.724195|    0.013467|
|        5300|   -6.164617|   -7.961488|    0.724195|    0.013467|
|        5301|   -6.170883|   -7.967730|    0.724195|    0.013467|
|        5302|   -6.176563|   -7.974137|    0.724195|    0.013467|
|        5303|   -6.181650|   -7.980727|    0.724194|    0.013467|
|        5304|   -6.186155|   -7.987514|    0.724194|    0.013467|
|        5305|   -6.190099|   -7.994512|    0.724194|    0.013467|
|        5306|   -6.193519|   -8.001730|    0.724194|    0.013467|
|        5307|   -6.196463|   -8.009177|    0.724194|    0.013467|
|        5308|   -6.198986|   -8.016863|    0.724194|    0.013467|
|        5309|   -6.201152|   -8.024794|    0.724194|    0.013467|
|        5310|   -6.203028|   -8.032975|    0.724194|    0.013467|
|        5311|   -6.204686|   -8.041411|    0.724194|    0.013467|
|        5312|   -6.206196|   -8.050104|    0.724193|    0.013467|
|        5313|   -6.207625|   -8.059059|    0.724193|    0.013467|
|        5314|   -6.209038|   -8.068276|    0.724193|    0.013467|
|        5315|   -6.210496|   -8.077757|    0.724193|    0.013467|
|        5316|   -6.212053|   -8.087502|    0.724193|    0.013467|
|        5317|   -6.213755|   -8.097508|    0.724193|    0.013467|
|        5318|   -6.215642|   -8.107775|    0.724193|    0.013467|
|        5319|   -6.217745|   -8.118299|    0.724193|    0.013467|
|        5320|   -6.220087|   -8.129077|    0.724193|    0.013467|
|        5321|   -6.222682|   -8.140103|    0.724193|    0.013467|
|        5322|   -6.225535|   -8.151370|    0.724193|    0.013467|
|        5323|   -6.228642|   -8.162874|    0.724193|    0.013467|
|        5324|   -6.231990|   -8.174610|    0.724193|    0.013467|
|        5325|   -6.235560|   -8.186564|    0.724193|    0.013468|
|        5326|   -6.239320|   -8.198728|    0.724193|    0.013468|
|        5327|   -6.243234|   -8.211094|    0.724193|    0.013468|
|        5328|   -6.247257|   -8.223652|    0.724193|    0.013468|
|        5329|   -6.251340|   -8.236393|    0.724193|    0.013468|
|        5330|   -6.255425|   -8.249306|    0.724193|    0.013468|
|        5331|   -6.259456|   -8.262381|    0.724193|    0.013468|
|        5332|   -6.263372|   -8.275607|    0.724193|    0.013468|
|        5333|   -6.267114|   -8.288971|    0.724193|    0.013468|
|        5334|   -6.270625|   -8.302463|    0.724193|    0.013468|
|        5335|   -6.273853|   -8.316068|    0.724192|    0.013468|
|        5336|   -6.276757|   -8.329772|    0.724192|    0.013468|
|        5337|   -6.279300|   -8.343558|    0.724192|    0.013468|
|        5338|   -6.281461|   -8.357407|    0.724192|    0.013468|
|        5339|   -6.283230|   -8.371298|    0.724192|    0.013469|
|        5340|   -6.284608|   -8.385207|    0.724192|    0.013469|
|        5341|   -6.285613|   -8.399105|    0.724192|    0.013469|
|        5342|   -6.286272|   -8.412962|    0.724192|    0.013469|
|        5343|   -6.286624|   -8.426742|    0.724192|    0.013469|
|        5344|   -6.286719|   -8.440406|    0.724192|    0.013469|
|        5345|   -6.286612|   -8.453912|    0.724192|    0.013469|
|        5346|   -6.286365|   -8.467213|    0.724192|    0.013469|
|        5347|   -6.286042|   -8.480260|    0.724192|    0.013469|
|        5348|   -6.285707|   -8.493000|    0.724192|    0.013469|
|        5349|   -6.285426|   -8.505379|    0.724191|    0.013469|
|        5350|   -6.285260|   -8.517345|    0.724191|    0.013469|
|        5351|   -6.285267|   -8.528845|    0.724191|    0.013469|
|        5352|   -6.285502|   -8.539827|    0.724191|    0.013469|
|        5353|   -6.286012|   -8.550246|    0.724191|    0.013469|
|        5354|   -6.286839|   -8.560060|    0.724191|    0.013469|
|        5355|   -6.288020|   -8.569235|    0.724191|    0.013469|
|        5356|   -6.289584|   -8.577746|    0.724191|    0.013469|
|        5357|   -6.291556|   -8.585576|    0.724190|    0.013469|
|        5358|   -6.293951|   -8.592716|    0.724190|    0.013469|
|        5359|   -6.296780|   -8.599166|    0.724190|    0.013469|
|        5360|   -6.300047|   -8.604937|    0.724190|    0.013469|
|        5361|   -6.303751|   -8.610045|    0.724190|    0.013469|
|        5362|   -6.307883|   -8.614517|    0.724190|    0.013469|
|        5363|   -6.312428|   -8.618383|    0.724189|    0.013469|
|        5364|   -6.317366|   -8.621680|    0.724189|    0.013469|
|        5365|   -6.322670|   -8.624448|    0.724189|    0.013469|
|        5366|   -6.328308|   -8.626729|    0.724189|    0.013469|
|        5367|   -6.334241|   -8.628567|    0.724189|    0.013469|
|        5368|   -6.340424|   -8.630004|    0.724188|    0.013469|
|        5369|   -6.346808|   -8.631085|    0.724188|    0.013469|
|        5370|   -6.353340|   -8.631851|    0.724188|    0.013469|
|        5371|   -6.359959|   -8.632341|    0.724188|    0.013469|
|        5372|   -6.366603|   -8.632595|    0.724188|    0.013469|
|        5373|   -6.373209|   -8.632647|    0.724187|    0.013469|
|        5374|   -6.379709|   -8.632531|    0.724187|    0.013469|
|        5375|   -6.386037|   -8.632276|    0.724187|    0.013469|
|        5376|   -6.392129|   -8.631911|    0.724187|    0.013469|
|        5377|   -6.397924|   -8.631460|    0.724187|    0.013469|
|        5378|   -6.403366|   -8.630945|    0.724187|    0.013469|
|        5379|   -6.408404|   -8.630383|    0.724186|    0.013469|
|        5380|   -6.412997|   -8.629789|    0.724186|    0.013469|
|        5381|   -6.417113|   -8.629177|    0.724186|    0.013469|
|        5382|   -6.420727|   -8.628554|    0.724186|    0.013469|
|        5383|   -6.423828|   -8.627926|    0.724186|    0.013469|
|        5384|   -6.426412|   -8.627294|    0.724186|    0.013469|
|        5385|   -6.428486|   -8.626657|    0.724186|    0.013469|
|        5386|   -6.430065|   -8.626012|    0.724186|    0.013469|
|        5387|   -6.431172|   -8.625351|    0.724186|    0.013469|
|        5388|   -6.431834|   -8.624664|    0.724185|    0.013469|
|        5389|   -6.432086|   -8.623941|    0.724185|    0.013468|
|        5390|   -6.431962|   -8.623168|    0.724185|    0.013468|
|        5391|   -6.431500|   -8.622333|    0.724185|    0.013468|
|        5392|   -6.430736|   -8.621420|    0.724185|    0.013468|
|        5393|   -6.429708|   -8.620416|    0.724185|    0.013468|
|        5394|   -6.428451|   -8.619310|    0.724185|    0.013468|
|        5395|   -6.426996|   -8.618091|    0.724185|    0.013468|
|        5396|   -6.425375|   -8.616752|    0.724185|    0.013468|
|        5397|   -6.423613|   -8.615287|    0.724185|    0.013468|
|        5398|   -6.421737|   -8.613696|    0.724185|    0.013468|
|        5399|   -6.419765|   -8.611981|    0.724185|    0.013468|
|        5400|   -6.417719|   -8.610149|    0.724185|    0.013468|
|        5401|   -6.415612|   -8.608209|    0.724185|    0.013467|
|        5402|   -6.413461|   -8.606177|    0.724185|    0.013467|
|        5403|   -6.411275|   -8.604068|    0.724185|    0.013467|
|        5404|   -6.409066|   -8.601902|    0.724185|    0.013467|
|        5405|   -6.406843|   -8.599702|    0.724185|    0.013467|
|        5406|   -6.404611|   -8.597491|    0.724185|    0.013467|
|        5407|   -6.402378|   -8.595293|    0.724185|    0.013467|
|        5408|   -6.400148|   -8.593132|    0.724185|    0.013467|
|        5409|   -6.397927|   -8.591032|    0.724185|    0.013467|
|        5410|   -6.395719|   -8.589015|    0.724185|    0.013467|
|        5411|   -6.393526|   -8.587102|    0.724185|    0.013467|
|        5412|   -6.391354|   -8.585313|    0.724185|    0.013467|
|        5413|   -6.389204|   -8.583663|    0.724185|    0.013466|
|        5414|   -6.387080|   -8.582167|    0.724185|    0.013466|
|        5415|   -6.384987|   -8.580834|    0.724185|    0.013466|
|        5416|   -6.382928|   -8.579672|    0.724185|    0.013466|
|        5417|   -6.380908|   -8.578686|    0.724185|    0.013466|
|        5418|   -6.378932|   -8.577877|    0.724185|    0.013466|
|        5419|   -6.377007|   -8.577245|    0.724185|    0.013466|
|        5420|   -6.375140|   -8.576786|    0.724185|    0.013466|
|        5421|   -6.373340|   -8.576494|    0.724185|    0.013466|
|        5422|   -6.371616|   -8.576362|    0.724185|    0.013466|
|        5423|   -6.369980|   -8.576380|    0.724185|    0.013466|
|        5424|   -6.368444|   -8.576538|    0.724185|    0.013466|
|        5425|   -6.367020|   -8.576825|    0.724185|    0.013466|
|        5426|   -6.365725|   -8.577228|    0.724185|    0.013466|
|        5427|   -6.364573|   -8.577736|    0.724185|    0.013466|
|        5428|   -6.363581|   -8.578337|    0.724184|    0.013466|
|        5429|   -6.362767|   -8.579020|    0.724184|    0.013466|
|        5430|   -6.362147|   -8.579773|    0.724184|    0.013466|
|        5431|   -6.361741|   -8.580586|    0.724184|    0.013466|
|        5432|   -6.361565|   -8.581451|    0.724184|    0.013466|
|        5433|   -6.361638|   -8.582360|    0.724184|    0.013466|
|        5434|   -6.361977|   -8.583306|    0.724184|    0.013466|
|        5435|   -6.362597|   -8.584282|    0.724184|    0.013466|
|        5436|   -6.363515|   -8.585284|    0.724184|    0.013466|
|        5437|   -6.364743|   -8.586309|    0.724184|    0.013466|
|        5438|   -6.366293|   -8.587352|    0.724184|    0.013466|
|        5439|   -6.368176|   -8.588410|    0.724184|    0.013466|
|        5440|   -6.370399|   -8.589481|    0.724184|    0.013466|
|        5441|   -6.372969|   -8.590563|    0.724184|    0.013466|
|        5442|   -6.375886|   -8.591653|    0.724184|    0.013466|
|        5443|   -6.379151|   -8.592748|    0.724184|    0.013466|
|        5444|   -6.382761|   -8.593844|    0.724184|    0.013466|
|        5445|   -6.386707|   -8.594939|    0.724184|    0.013466|
|        5446|   -6.390981|   -8.596027|    0.724184|    0.013466|
|        5447|   -6.395566|   -8.597105|    0.724184|    0.013466|
|        5448|   -6.400444|   -8.598167|    0.724184|    0.013467|
|        5449|   -6.405591|   -8.599209|    0.724183|    0.013467|
|        5450|   -6.410982|   -8.600226|    0.724183|    0.013467|
|        5451|   -6.416582|   -8.601213|    0.724183|    0.013467|
|        5452|   -6.422356|   -8.602164|    0.724183|    0.013467|
|        5453|   -6.428262|   -8.603077|    0.724183|    0.013467|
|        5454|   -6.434256|   -8.603948|    0.724183|    0.013467|
|        5455|   -6.440286|   -8.604774|    0.724183|    0.013467|
|        5456|   -6.446300|   -8.605555|    0.724183|    0.013467|
|        5457|   -6.452243|   -8.606291|    0.724183|    0.013467|
|        5458|   -6.458054|   -8.606982|    0.724183|    0.013467|
|        5459|   -6.463676|   -8.607634|    0.724182|    0.013467|
|        5460|   -6.469050|   -8.608249|    0.724182|    0.013468|
|        5461|   -6.474116|   -8.608834|    0.724182|    0.013468|
|        5462|   -6.478821|   -8.609396|    0.724182|    0.013468|
|        5463|   -6.483115|   -8.609944|    0.724182|    0.013468|
|        5464|   -6.486954|   -8.610488|    0.724182|    0.013468|
|        5465|   -6.490301|   -8.611038|    0.724182|    0.013468|
|        5466|   -6.493130|   -8.611604|    0.724181|    0.013468|
|        5467|   -6.495421|   -8.612198|    0.724181|    0.013468|
|        5468|   -6.497168|   -8.612830|    0.724181|    0.013468|
|        5469|   -6.498373|   -8.613512|    0.724181|    0.013468|
|        5470|   -6.499049|   -8.614253|    0.724181|    0.013468|
|        5471|   -6.499218|   -8.615063|    0.724180|    0.013468|
|        5472|   -6.498910|   -8.615949|    0.724180|    0.013469|
|        5473|   -6.498162|   -8.616918|    0.724180|    0.013469|
|        5474|   -6.497018|   -8.617974|    0.724180|    0.013469|
|        5475|   -6.495525|   -8.619122|    0.724180|    0.013469|
|        5476|   -6.493732|   -8.620361|    0.724179|    0.013469|
|        5477|   -6.491689|   -8.621692|    0.724179|    0.013469|
|        5478|   -6.489448|   -8.623111|    0.724179|    0.013469|
|        5479|   -6.487057|   -8.624616|    0.724179|    0.013469|
|        5480|   -6.484563|   -8.626198|    0.724179|    0.013469|
|        5481|   -6.482012|   -8.627851|    0.724178|    0.013469|
|        5482|   -6.479443|   -8.629564|    0.724178|    0.013469|
|        5483|   -6.476894|   -8.631327|    0.724178|    0.013469|
|        5484|   -6.474399|   -8.633127|    0.724178|    0.013469|
|        5485|   -6.471987|   -8.634950|    0.724177|    0.013469|
|        5486|   -6.469683|   -8.636783|    0.724177|    0.013469|
|        5487|   -6.467511|   -8.638611|    0.724177|    0.013469|
|        5488|   -6.465488|   -8.640419|    0.724177|    0.013469|
|        5489|   -6.463630|   -8.642193|    0.724177|    0.013469|
|        5490|   -6.461949|   -8.643917|    0.724176|    0.013469|
|        5491|   -6.460455|   -8.645578|    0.724176|    0.013469|
|        5492|   -6.459155|   -8.647162|    0.724176|    0.013469|
|        5493|   -6.458055|   -8.648658|    0.724176|    0.013469|
|        5494|   -6.457158|   -8.650053|    0.724176|    0.013469|
|        5495|   -6.456466|   -8.651339|    0.724175|    0.013469|
|        5496|   -6.455981|   -8.652505|    0.724175|    0.013469|
|        5497|   -6.455703|   -8.653544|    0.724175|    0.013469|
|        5498|   -6.455632|   -8.654450|    0.724175|    0.013469|
|        5499|   -6.455766|   -8.655217|    0.724175|    0.013456|
+-----------------------------------------------------------------------+
|Fixed CL Mode (Finite Difference)       |Value                         |
+-----------------------------------------------------------------------+
|Delta CL / Delta AoA                    |0.174963                      |
|Delta CD / Delta CL                     |0.04129                       |
|Delta CMz / Delta CL                    |-0.0102339                    |
+-----------------------------------------------------------------------+

----------------------------- Solver Exit -------------------------------

Maximum number of iterations reached (ITER = 5500) before convergence.
+-----------------------------------------------------------------------+
|      Convergence Field     |     Value    |   Criterion  |  Converged |
+-----------------------------------------------------------------------+
|                    rms[Rho]|      -6.45577|         < -12|          No|
|                  Cauchy[CL]|  1.38331e-007|      < 1e-006|         Yes|
+-----------------------------------------------------------------------+
-------------------------------------------------------------------------

------------------------- Solver Postprocessing -------------------------
Deleted CNumerics container.
Deleted CIntegration container.
Deleted CSolver container.
Deleted CIteration container.
Deleted CInterface container.
Deleted CGeometry container.
Deleted CFreeFormDefBox class.
Deleted CSurfaceMovement class.
Deleted CVolumetricMovement class.
Deleted CConfig container.
Deleted nInst container.
Deleted COutput class.
-------------------------------------------------------------------------

------------------------- Exit Success (SU2_CFD) ------------------------


-------------------------------------------------------------------------
|    ___ _   _ ___                                                      |
|   / __| | | |_  )   Release 7.1.1 "Blackbird"                         |
|   \__ \ |_| |/ /                                                      |
|   |___/\___//___|   Suite (Solution Exporting Code)                   |
|                                                                       |
-------------------------------------------------------------------------
| SU2 Project Website: https://su2code.github.io                        |
|                                                                       |
| The SU2 Project is maintained by the SU2 Foundation                   |
| (http://su2foundation.org)                                            |
-------------------------------------------------------------------------
| Copyright 2012-2020, SU2 Contributors                                 |
|                                                                       |
| SU2 is free software; you can redistribute it and/or                  |
| modify it under the terms of the GNU Lesser General Public            |
| License as published by the Free Software Foundation; either          |
| version 2.1 of the License, or (at your option) any later version.    |
|                                                                       |
| SU2 is distributed in the hope that it will be useful,                |
| but WITHOUT ANY WARRANTY; without even the implied warranty of        |
| MERCHANTABILITY or FITNESS FOR A PARTICULAR PURPOSE. See the GNU      |
| Lesser General Public License for more details.                       |
|                                                                       |
| You should have received a copy of the GNU Lesser General Public      |
| License along with SU2. If not, see <http://www.gnu.org/licenses/>.   |
-------------------------------------------------------------------------

----------------- Physical Case Definition ( Zone 0 ) -------------------
Input mesh file name: mesh_RAE2822_turb.su2

-------------------- Output Information ( Zone 0 ) ----------------------
The tabular file format is CSV (.csv).
Flow variables file name: flow.

------------- Config File Boundary Information ( Zone 0 ) ---------------
+-----------------------------------------------------------------------+
|                        Marker Type|                        Marker Name|
+-----------------------------------------------------------------------+
|                          Far-field|                           FARFIELD|
+-----------------------------------------------------------------------+
|                     Heat flux wall|                            AIRFOIL|
+-----------------------------------------------------------------------+
Two dimensional problem.
13937 grid points before partitioning.
22842 volume elements before partitioning.
2 surface markers.
192 boundary elements in index 0 (Marker = AIRFOIL).
40 boundary elements in index 1 (Marker = FARFIELD).
Executing the partitioning functions.
Building the graph adjacency structure.
Calling ParMETIS... graph partitioning complete (563 edge cuts).
Distributing ParMETIS coloring.
Rebalancing vertices.
Rebalancing volume element connectivity.
Rebalancing markers and surface elements.
14568 vertices including ghost points. 
23405 interior elements including halo cells. 
18541 triangles.
4864 quadrilaterals.
Establishing MPI communication patterns.
Identify vertices.
Storing a mapping from global to local point index.

------------------------- Solution Postprocessing -----------------------
Reading and storing the solution from restart_flow.
Volume output fields: COORDINATES, SOLUTION
  Info: Ignoring the following screen output fields:
  RMS_DENSITY, RMS_NU_TILDE, LIFT, DRAG
Screen output fields: INNER_ITER
  Info: Ignoring the following history output groups:
  RMS_RES, AERO_COEFF
History output group(s): ITER
Warning: No (valid) fields chosen for convergence monitoring. Convergence monitoring inactive.
Warning: No (valid) fields chosen for time convergence monitoring. Time convergence monitoring inactive.
|Paraview                           |flow.vtu                           |
|Paraview surface                   |surface_flow.vtu                   |
|CSV file                           |surface_flow.csv                   |

------------------------- Solver Postprocessing -------------------------
Deleted CGeometry container.
Deleted CSolver class.
Deleted CConfig container.
Deleted COutput class.

Completed in 0.020308 seconds on 4 cores.

------------------------- Exit Success (SU2_SOL) ------------------------

